 ****** HSPICE -- R-2020.12 win64 (Nov 23 2020 6727817) ******                  
  Copyright (c) 1986 - 2022 by Synopsys, Inc. All Rights Reserved.              
  This software and the associated documentation are proprietary
  to Synopsys, Inc. This software may only be used in accordance
  with the terms and conditions of a written license agreement with
  Synopsys, Inc. All other use, reproduction, or distribution of
  this software is strictly prohibited.
  Input File: C:\Users\jkaras8780\Downloads\RL_inverter_2.sp                    
  Command line options: C:\synopsys\Hspice_R-2020.12\WIN64\hspice.com -i C:\Users\jkaras8780\Downloads\RL_inverter_2.sp -o C:\Users\jkaras8780\Downloads\RL_inverter_2
  Start time: Sun Nov 20 13:52:51 2022
  lic:  
  lic: FLEXlm: SDK_12.9 
  lic: USER:   jkaras8780           HOSTNAME: ISTCOMMONS-37 
  lic: HOSTID: "0a0027000004"       PID:      9456 
  lic: Using FLEXlm license file: 
  lic: 27020@CCC-SYNOPSYS-LM 
  lic: Checkout 1 hspice 
  lic: License/Maintenance for hspice will expire on 15-dec-2022/2021.09 
  lic: 1(in_use)/50(total) FLOATING license(s) on SERVER 27020@CCC-SYNOPSYS-LM 
  lic:   
1****** HSPICE -- R-2020.12 win64 (Nov 23 2020 6727817) ******                  
 ******  
 * this is the model for a 45-nm rl inverter *

 ****** mos   model parameters tnom=  25.000 temp=  25.000 ******
 Model file: C:\Users\jkaras8780\Downloads\device_45_nm.lib
 Model line:            4
 Model Name: nmos  
 BSIM4 Model (Level 54)
    MOBMOD = 0
    BINUNIT = 1
    PARAMCHK = 1
    CAPMOD = 2
    DIOMOD = 1
    RDSMOD = 0
    TRNQSMOD = 0
    ACNQSMOD = 0
    RBODYMOD = 1
    RGATEMOD = 1
    PERMOD = 1
    GEOMOD = 1
    RGEOMOD = 0
    FNOIMOD = 1
    TNOIMOD = 0
    IGCMOD = 1
    IGBMOD = 1
    STIMOD = 0
    VERSION =      4 
    TOXREF = 1.25e-09 
    TOXE = 1.25e-09 
    TOXP =  1e-09 
    TOXM = 1.25e-09 
    DTOX = 2.5e-10 
    EPSROX =    3.9 
    CDSC =      0 
    CDSCB =      0 
    CDSCD =      0 
    CIT =      0 
    NFACTOR =   2.22 
    XJ = 1.4e-08 
    VSAT = 1.7e+05 
    A0 =      1 
    AGS =      0 
    A1 =      0 
    A2 =      1 
    AT = 3.3e+04 
    KETA =   0.04 
    NSUB =  6e+16 
    NDEP = 3.24e+18 
    NSD =  2e+20 
    NGATE =  1e+23 
    GAMMA1 =      0 
    GAMMA2 =      0 
    VBX =      0 
    VBM =     -3 
    XT = 1.55e-07 
    K1 =    0.4 
    KT1 =  -0.11 
    KT1L =      0 
    KT2 =  0.022 
    K2 =      0 
    K3 =      0 
    K3B =      0 
    LPE0 =      0 
    LPEB =      0 
    DVTP0 =  1e-10 
    DVTP1 =    0.1 
    W0 = 2.5e-06 
    DVT0 =      1 
    DVT1 =      2 
    DVT2 =      0 
    DVT0W =      0 
    DVT1W =      0 
    DVT2W =      0 
    DROUT =    0.5 
    DSUB =    0.1 
    VTH0 =   0.46 
    EU =   1.67 
    UA =  6e-10 
    UA1 = 4.31e-09 
    UB = 1.2e-18 
    UB1 = 7.61e-18 
    UC =      0 
    UC1 = -5.6e-11 
    U0 =  0.054 
    UTE =   -1.5 
    VOFF =  -0.13 
    VOFFL =      0 
    MINV =   0.05 
    FPROUT =    0.2 
    PDITS =   0.08 
    PDITSD =   0.23 
    PDITSL = 2.3e+06 
    DELTA =   0.01 
    RDSW =    155 
    RDSWMIN =      0 
    RDWMIN =      0 
    RSWMIN =      0 
    RDW =     80 
    RSW =     80 
    PRWG =      0 
    PRWB =      0 
    PRT =      0 
    ETA0 = 0.0055 
    ETAB =      0 
    PCLM =   0.02 
    PDIBLC1 =  0.001 
    PDIBLC2 =  0.001 
    PDIBLCB = -0.005 
    PSCBE1 = 8.14e+08 
    PSCBE2 =  1e-07 
    PVAG =  1e-20 
    WR =      1 
    DWG =      0 
    DWB =      0 
    XW =      0 
    XWREF =      0 
    XL = -2e-08 
    XLREF = -2e-08 
    B0 =      0 
    B1 =      0 
    ALPHA0 =  0.074 
    ALPHA1 =  0.005 
    AGIDL = 0.0002 
    BGIDL = 2.1e+09 
    CGIDL = 0.0002 
    PHIN =      0 
    EGIDL =    0.8 
    AIGC =   0.02 
    BIGC = 0.0025 
    CIGC =  0.002 
    AIGSD =   0.02 
    BIGSD = 0.0025 
    CIGSD =  0.002 
    AIGBACC =  0.012 
    BIGBACC = 0.0028 
    CIGBACC =  0.002 
    AIGBINV =  0.014 
    BIGBINV =  0.004 
    CIGBINV =  0.004 
    NIGC =      1 
    NIGBINV =      3 
    NIGBACC =      1 
    NTOX =      1 
    EIGBINV =    1.1 
    PIGCD =      1 
    POXEDGE =      1 
    XRCRG1 =     12 
    TNOIA =    1.5 
    TNOIB =    3.5 
    NTNOI =      1 
    XRCRG2 =      5 
    BETA0 =     30 
    IJTHDFWD =   0.01 
    IJTHSFWD =   0.01 
    IJTHDREV =  0.001 
    IJTHSREV =  0.001 
    XJBVD =      1 
    XJBVS =      1 
    BVD =     10 
    BVS =     10 
    VFB =  -0.55 
    GBMIN =  1e-10 
    RBDB =     15 
    RBPB =      5 
    RBSB =     15 
    RBPS =     15 
    RBPD =     15 
    CGSL = 2.653e-10 
    CGDL = 2.653e-10 
    CKAPPAS =   0.03 
    CKAPPAD =   0.03 
    CF = 1.269e-10 
    CLC =  1e-07 
    CLE =    0.6 
    DWC =  5e-09 
    DLC = 3.75e-09 
    DLCIG = 3.75e-09 
    DWJ =      0 
    VFBCV =     -1 
    ACDE =      1 
    MOIN =     15 
    NOFF =    0.9 
    VOFFCV =   0.02 
    DMCG =      0 
    DMCI =      0 
    DMDG =      0 
    DMCGT =      0 
    XGW =      0 
    XGL =      0 
    RSHG =    0.4 
    NGCON =      1 
    TCJ =  0.001 
    TPB =  0.005 
    TCJSW =  0.001 
    TPBSW =  0.005 
    TCJSWG =  0.001 
    TPBSWG =  0.005 
    SK0 =      0 
    SK1 =      0 
    SK2 =      0 
    SL =  2e-06 
    SW =  2e-06 
    K =      0 
    TNOM =  300.1 
    CGSO = 1.1e-10 
    CGDO = 1.1e-10 
    CGBO = 2.56e-11 
    XPART =      0 
    RSH =      5 
    JSS = 0.0001 
    JSWS =  1e-11 
    JSWGS =  1e-10 
    PBS =      1 
    MJS =    0.5 
    PBSWS =      1 
    MJSWS =   0.33 
    CJS = 0.0005 
    CJSWS =  5e-10 
    NJS =      1 
    PBSWGS =      1 
    MJSWGS =   0.33 
    CJSWGS =  3e-10 
    XTIS =      3 
    JSD = 0.0001 
    JSWD =  1e-11 
    JSWGD =  1e-10 
    PBD =      1 
    MJD =    0.5 
    PBSWD =      1 
    MJSWD =   0.33 
    CJD = 0.0005 
    CJSWD =  5e-10 
    NJD =      1 
    PBSWGD =      1 
    MJSWGD =   0.33 
    CJSWGD =  5e-10 
    XTID =      3 
    LMLT =      1 
    WMLT =      1 
    LINT = 3.75e-09 
    LL =      0 
    LLC =      0 
    LLN =      1 
    LW =      0 
    LWC =      0 
    LWN =      1 
    LWL =      0 
    LWLC =      0 
    LMIN =      0 
    LMAX =      1 
    WINT =  5e-09 
    WL =      0 
    WLC =      0 
    WLN =      1 
    WW =      0 
    WWC =      0 
    WWN =      1 
    WWL =      0 
    WWLC =      0 
    WMIN =      0 
    WMAX =      1 
    NOIA = 6.25e+41 
    NOIB = 3.125e+26 
    NOIC = 8.75e+09 
    EM = 4.1e+07 
    EF =      1 
    AF =      1 
    KF =      0 
    TRS =      0 
    TRD =      0 
  **info** (C:\Users\jkaras8780\Downloads\RL_inverter_2.sp:15) DC voltage reset to initial transient source value in source 0:v1. new dc=0.0000D+00
  **warning** (nmos:m1 (C:\Users\jkaras8780\Downloads\RL_inverter_2.sp:24)) Warning:  Acde = 0.280299 may be too small in BSIM4 model with w=1.44e-07 l=4.5e-08.
  
      
 *****************************************************************
 ******  option summary
 ******
 runlvl  = 3         bypass  = 2.0000    
 **info** dc convergence successful at Newton-Raphson method 
 ******  
 * this is the model for a 45-nm rl inverter *

 ****** operating point information tnom=  25.000 temp=  25.000 ******
 ****** operating point status is voltage   simulation time is     0.     
    node    =voltage      node    =voltage      node    =voltage

 +0:vdd     =   1.0000  0:vin     =   0.      0:vout    = 999.9309m

 ******
 * this is the model for a 45-nm rl inverter *

 ****** transient analysis tnom=  25.000 temp=  25.000 ******
x

 time         voltage    voltage   
             vout       vin        
    0.        999.9309m    0.      
   20.00000p  403.6311m    1.0000  
   40.00000p   80.6825m    1.0000  
   60.00000p   80.1195m    1.0000  
   80.00000p   80.2950m    1.0000  
  100.00000p   80.2967m    1.0000  
  120.00000p   80.2990m    1.0000  
  140.00000p   80.2996m    1.0000  
  160.00000p   80.2990m    1.0000  
  180.00000p   80.2984m    1.0000  
  200.00000p   80.2978m    1.0000  
  220.00000p   80.2972m    1.0000  
  240.00000p   80.2965m    1.0000  
  260.00000p   80.2966m    1.0000  
  280.00000p   80.2967m    1.0000  
  300.00000p   80.2969m    1.0000  
  320.00000p   80.2970m    1.0000  
  340.00000p   80.2972m    1.0000  
  360.00000p   80.2974m    1.0000  
  380.00000p   80.2975m    1.0000  
  400.00000p   80.2977m    1.0000  
  420.00000p   80.2978m    1.0000  
  440.00000p   80.2980m    1.0000  
  460.00000p   80.2982m    1.0000  
  480.00000p   80.2983m    1.0000  
  500.00000p   80.2985m    1.0000  
  520.00000p   80.2987m    1.0000  
  540.00000p   80.2988m    1.0000  
  560.00000p   80.2990m    1.0000  
  580.00000p   80.2991m    1.0000  
  600.00000p   80.2993m    1.0000  
  620.00000p   80.2994m    1.0000  
  640.00000p   80.2993m    1.0000  
  660.00000p   80.2993m    1.0000  
  680.00000p   80.2992m    1.0000  
  700.00000p   80.2992m    1.0000  
  720.00000p   80.2991m    1.0000  
  740.00000p   80.2991m    1.0000  
  760.00000p   80.2990m    1.0000  
  780.00000p   80.2990m    1.0000  
  800.00000p   80.2989m    1.0000  
  820.00000p   80.2989m    1.0000  
  840.00000p   80.2989m    1.0000  
  860.00000p   80.2988m    1.0000  
  880.00000p   80.2988m    1.0000  
  900.00000p   80.2987m    1.0000  
  920.00000p   80.2987m    1.0000  
  940.00000p   80.2986m    1.0000  
  960.00000p   80.2986m    1.0000  
  980.00000p   80.2985m    1.0000  
 1000.00000p   80.2985m    1.0000  
    1.02000n   80.2984m    1.0000  
    1.04000n   80.2984m    1.0000  
    1.06000n   80.2983m    1.0000  
    1.08000n   80.2983m    1.0000  
    1.10000n   80.2982m    1.0000  
    1.12000n   80.2982m    1.0000  
    1.14000n   80.2981m    1.0000  
    1.16000n   80.2981m    1.0000  
    1.18000n   80.2980m    1.0000  
    1.20000n   80.2980m    1.0000  
    1.22000n   80.2979m    1.0000  
    1.24000n   80.2979m    1.0000  
    1.26000n   80.2979m    1.0000  
    1.28000n   80.2978m    1.0000  
    1.30000n   80.2978m    1.0000  
    1.32000n   80.2977m    1.0000  
    1.34000n   80.2977m    1.0000  
    1.36000n   80.2976m    1.0000  
    1.38000n   80.2976m    1.0000  
    1.40000n   80.2975m    1.0000  
    1.42000n   80.2975m    1.0000  
    1.44000n   80.2974m    1.0000  
    1.46000n   80.2974m    1.0000  
    1.48000n   80.2973m    1.0000  
    1.50000n   80.2973m    1.0000  
    1.52000n   80.2972m    1.0000  
    1.54000n   80.2972m    1.0000  
    1.56000n   80.2971m    1.0000  
    1.58000n   80.2971m    1.0000  
    1.60000n   80.2970m    1.0000  
    1.62000n   80.2970m    1.0000  
    1.64000n   80.2969m    1.0000  
    1.66000n   80.2969m    1.0000  
    1.68000n   80.2968m    1.0000  
    1.70000n   80.2968m    1.0000  
    1.72000n   80.2968m    1.0000  
    1.74000n   80.2967m    1.0000  
    1.76000n   80.2967m    1.0000  
    1.78000n   80.2966m    1.0000  
    1.80000n   80.2966m    1.0000  
    1.82000n   80.2966m    1.0000  
    1.84000n   80.2966m    1.0000  
    1.86000n   80.2967m    1.0000  
    1.88000n   80.2967m    1.0000  
    1.90000n   80.2967m    1.0000  
    1.92000n   80.2967m    1.0000  
    1.94000n   80.2968m    1.0000  
    1.96000n   80.2968m    1.0000  
    1.98000n   80.2968m    1.0000  
    2.00000n   80.2968m    1.0000  
    2.02000n   80.2969m    1.0000  
    2.04000n   80.2969m    1.0000  
    2.06000n   80.2969m    1.0000  
    2.08000n   80.2969m    1.0000  
    2.10000n   80.2970m    1.0000  
    2.12000n   80.2970m    1.0000  
    2.14000n   80.2970m    1.0000  
    2.16000n   80.2970m    1.0000  
    2.18000n   80.2971m    1.0000  
    2.20000n   80.2971m    1.0000  
    2.22000n   80.2971m    1.0000  
    2.24000n   80.2971m    1.0000  
    2.26000n   80.2972m    1.0000  
    2.28000n   80.2972m    1.0000  
    2.30000n   80.2972m    1.0000  
    2.32000n   80.2972m    1.0000  
    2.34000n   80.2973m    1.0000  
    2.36000n   80.2973m    1.0000  
    2.38000n   80.2973m    1.0000  
    2.40000n   80.2973m    1.0000  
    2.42000n   80.2974m    1.0000  
    2.44000n   80.2974m    1.0000  
    2.46000n   80.2974m    1.0000  
    2.48000n   80.2974m    1.0000  
    2.50000n   80.2975m    1.0000  
    2.52000n   80.2975m    1.0000  
    2.54000n   80.2975m    1.0000  
    2.56000n   80.2975m    1.0000  
    2.58000n   80.2976m    1.0000  
    2.60000n   80.2976m    1.0000  
    2.62000n   80.2976m    1.0000  
    2.64000n   80.2976m    1.0000  
    2.66000n   80.2977m    1.0000  
    2.68000n   80.2977m    1.0000  
    2.70000n   80.2977m    1.0000  
    2.72000n   80.2977m    1.0000  
    2.74000n   80.2978m    1.0000  
    2.76000n   80.2978m    1.0000  
    2.78000n   80.2978m    1.0000  
    2.80000n   80.2978m    1.0000  
    2.82000n   80.2979m    1.0000  
    2.84000n   80.2979m    1.0000  
    2.86000n   80.2979m    1.0000  
    2.88000n   80.2979m    1.0000  
    2.90000n   80.2980m    1.0000  
    2.92000n   80.2980m    1.0000  
    2.94000n   80.2980m    1.0000  
    2.96000n   80.2980m    1.0000  
    2.98000n   80.2981m    1.0000  
    3.00000n   80.2981m    1.0000  
    3.02000n   80.2981m    1.0000  
    3.04000n   80.2981m    1.0000  
    3.06000n   80.2982m    1.0000  
    3.08000n   80.2982m    1.0000  
    3.10000n   80.2982m    1.0000  
    3.12000n   80.2982m    1.0000  
    3.14000n   80.2983m    1.0000  
    3.16000n   80.2983m    1.0000  
    3.18000n   80.2983m    1.0000  
    3.20000n   80.2983m    1.0000  
    3.22000n   80.2984m    1.0000  
    3.24000n   80.2984m    1.0000  
    3.26000n   80.2984m    1.0000  
    3.28000n   80.2984m    1.0000  
    3.30000n   80.2985m    1.0000  
    3.32000n   80.2985m    1.0000  
    3.34000n   80.2985m    1.0000  
    3.36000n   80.2985m    1.0000  
    3.38000n   80.2986m    1.0000  
    3.40000n   80.2986m    1.0000  
    3.42000n   80.2986m    1.0000  
    3.44000n   80.2986m    1.0000  
    3.46000n   80.2987m    1.0000  
    3.48000n   80.2987m    1.0000  
    3.50000n   80.2987m    1.0000  
    3.52000n   80.2987m    1.0000  
    3.54000n   80.2988m    1.0000  
    3.56000n   80.2988m    1.0000  
    3.58000n   80.2988m    1.0000  
    3.60000n   80.2988m    1.0000  
    3.62000n   80.2989m    1.0000  
    3.64000n   80.2989m    1.0000  
    3.66000n   80.2989m    1.0000  
    3.68000n   80.2989m    1.0000  
    3.70000n   80.2990m    1.0000  
    3.72000n   80.2990m    1.0000  
    3.74000n   80.2990m    1.0000  
    3.76000n   80.2990m    1.0000  
    3.78000n   80.2991m    1.0000  
    3.80000n   80.2991m    1.0000  
    3.82000n   80.2991m    1.0000  
    3.84000n   80.2991m    1.0000  
    3.86000n   80.2992m    1.0000  
    3.88000n   80.2992m    1.0000  
    3.90000n   80.2992m    1.0000  
    3.92000n   80.2992m    1.0000  
    3.94000n   80.2993m    1.0000  
    3.96000n   80.2993m    1.0000  
    3.98000n   80.2993m    1.0000  
    4.00000n   80.2993m    1.0000  
    4.02000n  166.7159m    0.      
    4.04000n  396.1212m    0.      
    4.06000n  546.8957m    0.      
    4.08000n  688.1866m    0.      
    4.10000n  779.9858m    0.      
    4.12000n  837.8625m    0.      
    4.14000n  877.7791m    0.      
    4.16000n  917.6956m    0.      
    4.18000n  938.2187m    0.      
    4.20000n  955.8078m    0.      
    4.22000n  970.1113m    0.      
    4.24000n  976.8577m    0.      
    4.26000n  983.6041m    0.      
    4.28000n  990.1383m    0.      
    4.30000n  992.0390m    0.      
    4.32000n  993.9396m    0.      
    4.34000n  995.8403m    0.      
    4.36000n  997.7410m    0.      
    4.38000n  998.3100m    0.      
    4.40000n  998.6220m    0.      
    4.42000n  998.9340m    0.      
    4.44000n  999.2460m    0.      
    4.46000n  999.5579m    0.      
    4.48000n  999.8699m    0.      
    4.50000n  999.8893m    0.      
    4.52000n  999.8959m    0.      
    4.54000n  999.9024m    0.      
    4.56000n  999.9090m    0.      
    4.58000n  999.9155m    0.      
    4.60000n  999.9221m    0.      
    4.62000n  999.9286m    0.      
    4.64000n  999.9351m    0.      
    4.66000n  999.9377m    0.      
    4.68000n  999.9370m    0.      
    4.70000n  999.9362m    0.      
    4.72000n  999.9354m    0.      
    4.74000n  999.9346m    0.      
    4.76000n  999.9338m    0.      
    4.78000n  999.9330m    0.      
    4.80000n  999.9322m    0.      
    4.82000n  999.9314m    0.      
    4.84000n  999.9306m    0.      
    4.86000n  999.9299m    0.      
    4.88000n  999.9291m    0.      
    4.90000n  999.9283m    0.      
    4.92000n  999.9278m    0.      
    4.94000n  999.9280m    0.      
    4.96000n  999.9282m    0.      
    4.98000n  999.9284m    0.      
    5.00000n  999.9285m    0.      
    5.02000n  999.9287m    0.      
    5.04000n  999.9289m    0.      
    5.06000n  999.9291m    0.      
    5.08000n  999.9293m    0.      
    5.10000n  999.9294m    0.      
    5.12000n  999.9296m    0.      
    5.14000n  999.9298m    0.      
    5.16000n  999.9300m    0.      
    5.18000n  999.9301m    0.      
    5.20000n  999.9303m    0.      
    5.22000n  999.9305m    0.      
    5.24000n  999.9307m    0.      
    5.26000n  999.9309m    0.      
    5.28000n  999.9310m    0.      
    5.30000n  999.9312m    0.      
    5.32000n  999.9314m    0.      
    5.34000n  999.9316m    0.      
    5.36000n  999.9318m    0.      
    5.38000n  999.9319m    0.      
    5.40000n  999.9321m    0.      
    5.42000n  999.9322m    0.      
    5.44000n  999.9322m    0.      
    5.46000n  999.9321m    0.      
    5.48000n  999.9321m    0.      
    5.50000n  999.9321m    0.      
    5.52000n  999.9320m    0.      
    5.54000n  999.9320m    0.      
    5.56000n  999.9320m    0.      
    5.58000n  999.9320m    0.      
    5.60000n  999.9319m    0.      
    5.62000n  999.9319m    0.      
    5.64000n  999.9319m    0.      
    5.66000n  999.9318m    0.      
    5.68000n  999.9318m    0.      
    5.70000n  999.9318m    0.      
    5.72000n  999.9317m    0.      
    5.74000n  999.9317m    0.      
    5.76000n  999.9317m    0.      
    5.78000n  999.9317m    0.      
    5.80000n  999.9316m    0.      
    5.82000n  999.9316m    0.      
    5.84000n  999.9316m    0.      
    5.86000n  999.9315m    0.      
    5.88000n  999.9315m    0.      
    5.90000n  999.9315m    0.      
    5.92000n  999.9315m    0.      
    5.94000n  999.9314m    0.      
    5.96000n  999.9314m    0.      
    5.98000n  999.9314m    0.      
    6.00000n  999.9313m    0.      
    6.02000n  999.9313m    0.      
    6.04000n  999.9313m    0.      
    6.06000n  999.9313m    0.      
    6.08000n  999.9312m    0.      
    6.10000n  999.9312m    0.      
    6.12000n  999.9312m    0.      
    6.14000n  999.9311m    0.      
    6.16000n  999.9311m    0.      
    6.18000n  999.9311m    0.      
    6.20000n  999.9311m    0.      
    6.22000n  999.9310m    0.      
    6.24000n  999.9310m    0.      
    6.26000n  999.9310m    0.      
    6.28000n  999.9309m    0.      
    6.30000n  999.9309m    0.      
    6.32000n  999.9309m    0.      
    6.34000n  999.9308m    0.      
    6.36000n  999.9308m    0.      
    6.38000n  999.9308m    0.      
    6.40000n  999.9308m    0.      
    6.42000n  999.9307m    0.      
    6.44000n  999.9307m    0.      
    6.46000n  999.9307m    0.      
    6.48000n  999.9306m    0.      
    6.50000n  999.9306m    0.      
    6.52000n  999.9306m    0.      
    6.54000n  999.9306m    0.      
    6.56000n  999.9305m    0.      
    6.58000n  999.9305m    0.      
    6.60000n  999.9305m    0.      
    6.62000n  999.9304m    0.      
    6.64000n  999.9304m    0.      
    6.66000n  999.9304m    0.      
    6.68000n  999.9304m    0.      
    6.70000n  999.9303m    0.      
    6.72000n  999.9303m    0.      
    6.74000n  999.9303m    0.      
    6.76000n  999.9302m    0.      
    6.78000n  999.9302m    0.      
    6.80000n  999.9302m    0.      
    6.82000n  999.9302m    0.      
    6.84000n  999.9301m    0.      
    6.86000n  999.9301m    0.      
    6.88000n  999.9301m    0.      
    6.90000n  999.9300m    0.      
    6.92000n  999.9300m    0.      
    6.94000n  999.9300m    0.      
    6.96000n  999.9299m    0.      
    6.98000n  999.9299m    0.      
    7.00000n  999.9299m    0.      
    7.02000n  999.9299m    0.      
    7.04000n  999.9300m    0.      
    7.06000n  999.9300m    0.      
    7.08000n  999.9300m    0.      
    7.10000n  999.9301m    0.      
    7.12000n  999.9301m    0.      
    7.14000n  999.9301m    0.      
    7.16000n  999.9302m    0.      
    7.18000n  999.9302m    0.      
    7.20000n  999.9302m    0.      
    7.22000n  999.9303m    0.      
    7.24000n  999.9303m    0.      
    7.26000n  999.9304m    0.      
    7.28000n  999.9304m    0.      
    7.30000n  999.9304m    0.      
    7.32000n  999.9305m    0.      
    7.34000n  999.9305m    0.      
    7.36000n  999.9305m    0.      
    7.38000n  999.9306m    0.      
    7.40000n  999.9306m    0.      
    7.42000n  999.9306m    0.      
    7.44000n  999.9307m    0.      
    7.46000n  999.9307m    0.      
    7.48000n  999.9308m    0.      
    7.50000n  999.9308m    0.      
    7.52000n  999.9308m    0.      
    7.54000n  999.9309m    0.      
    7.56000n  999.9309m    0.      
    7.58000n  999.9309m    0.      
    7.60000n  999.9310m    0.      
    7.62000n  999.9310m    0.      
    7.64000n  999.9310m    0.      
    7.66000n  999.9311m    0.      
    7.68000n  999.9311m    0.      
    7.70000n  999.9311m    0.      
    7.72000n  999.9312m    0.      
    7.74000n  999.9312m    0.      
    7.76000n  999.9313m    0.      
    7.78000n  999.9313m    0.      
    7.80000n  999.9313m    0.      
    7.82000n  999.9314m    0.      
    7.84000n  999.9314m    0.      
    7.86000n  999.9314m    0.      
    7.88000n  999.9315m    0.      
    7.90000n  999.9315m    0.      
    7.92000n  999.9315m    0.      
    7.94000n  999.9316m    0.      
    7.96000n  999.9316m    0.      
    7.98000n  999.9317m    0.      
    8.00000n  999.9317m    0.      
    8.02000n  391.7617m    1.0000  
    8.04000n   77.4721m    1.0000  
    8.06000n   80.3341m    1.0000  
    8.08000n   80.2980m    1.0000  
    8.10000n   80.2991m    1.0000  
    8.12000n   80.2990m    1.0000  
    8.14000n   80.2989m    1.0000  
    8.16000n   80.2988m    1.0000  
    8.18000n   80.2987m    1.0000  
    8.20000n   80.2985m    1.0000  
    8.22000n   80.2984m    1.0000  
    8.24000n   80.2983m    1.0000  
    8.26000n   80.2981m    1.0000  
    8.28000n   80.2980m    1.0000  
    8.30000n   80.2979m    1.0000  
    8.32000n   80.2977m    1.0000  
    8.34000n   80.2978m    1.0000  
    8.36000n   80.2978m    1.0000  
    8.38000n   80.2979m    1.0000  
    8.40000n   80.2979m    1.0000  
    8.42000n   80.2979m    1.0000  
    8.44000n   80.2980m    1.0000  
    8.46000n   80.2980m    1.0000  
    8.48000n   80.2981m    1.0000  
    8.50000n   80.2981m    1.0000  
    8.52000n   80.2982m    1.0000  
    8.54000n   80.2982m    1.0000  
    8.56000n   80.2982m    1.0000  
    8.58000n   80.2983m    1.0000  
    8.60000n   80.2983m    1.0000  
    8.62000n   80.2984m    1.0000  
    8.64000n   80.2984m    1.0000  
    8.66000n   80.2984m    1.0000  
    8.68000n   80.2985m    1.0000  
    8.70000n   80.2985m    1.0000  
    8.72000n   80.2986m    1.0000  
    8.74000n   80.2986m    1.0000  
    8.76000n   80.2987m    1.0000  
    8.78000n   80.2987m    1.0000  
    8.80000n   80.2987m    1.0000  
    8.82000n   80.2988m    1.0000  
    8.84000n   80.2988m    1.0000  
    8.86000n   80.2989m    1.0000  
    8.88000n   80.2989m    1.0000  
    8.90000n   80.2989m    1.0000  
    8.92000n   80.2989m    1.0000  
    8.94000n   80.2989m    1.0000  
    8.96000n   80.2989m    1.0000  
    8.98000n   80.2989m    1.0000  
    9.00000n   80.2989m    1.0000  
    9.02000n   80.2988m    1.0000  
    9.04000n   80.2988m    1.0000  
    9.06000n   80.2988m    1.0000  
    9.08000n   80.2988m    1.0000  
    9.10000n   80.2988m    1.0000  
    9.12000n   80.2988m    1.0000  
    9.14000n   80.2988m    1.0000  
    9.16000n   80.2987m    1.0000  
    9.18000n   80.2987m    1.0000  
    9.20000n   80.2987m    1.0000  
    9.22000n   80.2987m    1.0000  
    9.24000n   80.2987m    1.0000  
    9.26000n   80.2987m    1.0000  
    9.28000n   80.2987m    1.0000  
    9.30000n   80.2987m    1.0000  
    9.32000n   80.2986m    1.0000  
    9.34000n   80.2986m    1.0000  
    9.36000n   80.2986m    1.0000  
    9.38000n   80.2986m    1.0000  
    9.40000n   80.2986m    1.0000  
    9.42000n   80.2986m    1.0000  
    9.44000n   80.2986m    1.0000  
    9.46000n   80.2986m    1.0000  
    9.48000n   80.2985m    1.0000  
    9.50000n   80.2985m    1.0000  
    9.52000n   80.2985m    1.0000  
    9.54000n   80.2985m    1.0000  
    9.56000n   80.2985m    1.0000  
    9.58000n   80.2985m    1.0000  
    9.60000n   80.2985m    1.0000  
    9.62000n   80.2985m    1.0000  
    9.64000n   80.2984m    1.0000  
    9.66000n   80.2984m    1.0000  
    9.68000n   80.2984m    1.0000  
    9.70000n   80.2984m    1.0000  
    9.72000n   80.2984m    1.0000  
    9.74000n   80.2984m    1.0000  
    9.76000n   80.2984m    1.0000  
    9.78000n   80.2984m    1.0000  
    9.80000n   80.2983m    1.0000  
    9.82000n   80.2983m    1.0000  
    9.84000n   80.2983m    1.0000  
    9.86000n   80.2983m    1.0000  
    9.88000n   80.2983m    1.0000  
    9.90000n   80.2983m    1.0000  
    9.92000n   80.2983m    1.0000  
    9.94000n   80.2983m    1.0000  
    9.96000n   80.2982m    1.0000  
    9.98000n   80.2982m    1.0000  
   10.00000n   80.2982m    1.0000  
   10.02000n   80.2982m    1.0000  
   10.04000n   80.2982m    1.0000  
   10.06000n   80.2982m    1.0000  
   10.08000n   80.2982m    1.0000  
   10.10000n   80.2981m    1.0000  
   10.12000n   80.2981m    1.0000  
   10.14000n   80.2981m    1.0000  
   10.16000n   80.2981m    1.0000  
   10.18000n   80.2981m    1.0000  
   10.20000n   80.2981m    1.0000  
   10.22000n   80.2981m    1.0000  
   10.24000n   80.2981m    1.0000  
   10.26000n   80.2980m    1.0000  
   10.28000n   80.2980m    1.0000  
   10.30000n   80.2980m    1.0000  
   10.32000n   80.2980m    1.0000  
   10.34000n   80.2980m    1.0000  
   10.36000n   80.2980m    1.0000  
   10.38000n   80.2980m    1.0000  
   10.40000n   80.2980m    1.0000  
   10.42000n   80.2979m    1.0000  
   10.44000n   80.2979m    1.0000  
   10.46000n   80.2979m    1.0000  
   10.48000n   80.2979m    1.0000  
   10.50000n   80.2979m    1.0000  
   10.52000n   80.2979m    1.0000  
   10.54000n   80.2979m    1.0000  
   10.56000n   80.2979m    1.0000  
   10.58000n   80.2978m    1.0000  
   10.60000n   80.2978m    1.0000  
   10.62000n   80.2978m    1.0000  
   10.64000n   80.2978m    1.0000  
   10.66000n   80.2978m    1.0000  
   10.68000n   80.2978m    1.0000  
   10.70000n   80.2978m    1.0000  
   10.72000n   80.2978m    1.0000  
   10.74000n   80.2978m    1.0000  
   10.76000n   80.2978m    1.0000  
   10.78000n   80.2978m    1.0000  
   10.80000n   80.2978m    1.0000  
   10.82000n   80.2979m    1.0000  
   10.84000n   80.2979m    1.0000  
   10.86000n   80.2979m    1.0000  
   10.88000n   80.2979m    1.0000  
   10.90000n   80.2979m    1.0000  
   10.92000n   80.2979m    1.0000  
   10.94000n   80.2980m    1.0000  
   10.96000n   80.2980m    1.0000  
   10.98000n   80.2980m    1.0000  
   11.00000n   80.2980m    1.0000  
   11.02000n   80.2980m    1.0000  
   11.04000n   80.2980m    1.0000  
   11.06000n   80.2981m    1.0000  
   11.08000n   80.2981m    1.0000  
   11.10000n   80.2981m    1.0000  
   11.12000n   80.2981m    1.0000  
   11.14000n   80.2981m    1.0000  
   11.16000n   80.2982m    1.0000  
   11.18000n   80.2982m    1.0000  
   11.20000n   80.2982m    1.0000  
   11.22000n   80.2982m    1.0000  
   11.24000n   80.2982m    1.0000  
   11.26000n   80.2982m    1.0000  
   11.28000n   80.2983m    1.0000  
   11.30000n   80.2983m    1.0000  
   11.32000n   80.2983m    1.0000  
   11.34000n   80.2983m    1.0000  
   11.36000n   80.2983m    1.0000  
   11.38000n   80.2983m    1.0000  
   11.40000n   80.2984m    1.0000  
   11.42000n   80.2984m    1.0000  
   11.44000n   80.2984m    1.0000  
   11.46000n   80.2984m    1.0000  
   11.48000n   80.2984m    1.0000  
   11.50000n   80.2985m    1.0000  
   11.52000n   80.2985m    1.0000  
   11.54000n   80.2985m    1.0000  
   11.56000n   80.2985m    1.0000  
   11.58000n   80.2985m    1.0000  
   11.60000n   80.2985m    1.0000  
   11.62000n   80.2986m    1.0000  
   11.64000n   80.2986m    1.0000  
   11.66000n   80.2986m    1.0000  
   11.68000n   80.2986m    1.0000  
   11.70000n   80.2986m    1.0000  
   11.72000n   80.2986m    1.0000  
   11.74000n   80.2987m    1.0000  
   11.76000n   80.2987m    1.0000  
   11.78000n   80.2987m    1.0000  
   11.80000n   80.2987m    1.0000  
   11.82000n   80.2987m    1.0000  
   11.84000n   80.2988m    1.0000  
   11.86000n   80.2988m    1.0000  
   11.88000n   80.2988m    1.0000  
   11.90000n   80.2988m    1.0000  
   11.92000n   80.2988m    1.0000  
   11.94000n   80.2988m    1.0000  
   11.96000n   80.2989m    1.0000  
   11.98000n   80.2989m    1.0000  
   12.00000n   80.2989m    1.0000  
   12.02000n  166.7155m    0.      
   12.04000n  396.1209m    0.      
   12.06000n  546.8954m    0.      
   12.08000n  688.1865m    0.      
   12.10000n  779.9857m    0.      
   12.12000n  837.8624m    0.      
   12.14000n  877.7790m    0.      
   12.16000n  917.6956m    0.      
   12.18000n  938.2186m    0.      
   12.20000n  955.8078m    0.      
   12.22000n  970.1112m    0.      
   12.24000n  976.8577m    0.      
   12.26000n  983.6041m    0.      
   12.28000n  990.1383m    0.      
   12.30000n  992.0389m    0.      
   12.32000n  993.9396m    0.      
   12.34000n  995.8403m    0.      
   12.36000n  997.7410m    0.      
   12.38000n  998.3100m    0.      
   12.40000n  998.6220m    0.      
   12.42000n  998.9340m    0.      
   12.44000n  999.2460m    0.      
   12.46000n  999.5579m    0.      
   12.48000n  999.8699m    0.      
   12.50000n  999.8893m    0.      
   12.52000n  999.8959m    0.      
   12.54000n  999.9024m    0.      
   12.56000n  999.9090m    0.      
   12.58000n  999.9155m    0.      
   12.60000n  999.9221m    0.      
   12.62000n  999.9286m    0.      
   12.64000n  999.9351m    0.      
   12.66000n  999.9377m    0.      
   12.68000n  999.9370m    0.      
   12.70000n  999.9362m    0.      
   12.72000n  999.9354m    0.      
   12.74000n  999.9346m    0.      
   12.76000n  999.9338m    0.      
   12.78000n  999.9330m    0.      
   12.80000n  999.9322m    0.      
   12.82000n  999.9314m    0.      
   12.84000n  999.9306m    0.      
   12.86000n  999.9299m    0.      
   12.88000n  999.9291m    0.      
   12.90000n  999.9283m    0.      
   12.92000n  999.9278m    0.      
   12.94000n  999.9280m    0.      
   12.96000n  999.9282m    0.      
   12.98000n  999.9284m    0.      
   13.00000n  999.9285m    0.      
   13.02000n  999.9287m    0.      
   13.04000n  999.9289m    0.      
   13.06000n  999.9291m    0.      
   13.08000n  999.9293m    0.      
   13.10000n  999.9294m    0.      
   13.12000n  999.9296m    0.      
   13.14000n  999.9298m    0.      
   13.16000n  999.9300m    0.      
   13.18000n  999.9301m    0.      
   13.20000n  999.9303m    0.      
   13.22000n  999.9305m    0.      
   13.24000n  999.9307m    0.      
   13.26000n  999.9309m    0.      
   13.28000n  999.9310m    0.      
   13.30000n  999.9312m    0.      
   13.32000n  999.9314m    0.      
   13.34000n  999.9316m    0.      
   13.36000n  999.9318m    0.      
   13.38000n  999.9319m    0.      
   13.40000n  999.9321m    0.      
   13.42000n  999.9322m    0.      
   13.44000n  999.9322m    0.      
   13.46000n  999.9321m    0.      
   13.48000n  999.9321m    0.      
   13.50000n  999.9321m    0.      
   13.52000n  999.9320m    0.      
   13.54000n  999.9320m    0.      
   13.56000n  999.9320m    0.      
   13.58000n  999.9320m    0.      
   13.60000n  999.9319m    0.      
   13.62000n  999.9319m    0.      
   13.64000n  999.9319m    0.      
   13.66000n  999.9318m    0.      
   13.68000n  999.9318m    0.      
   13.70000n  999.9318m    0.      
   13.72000n  999.9317m    0.      
   13.74000n  999.9317m    0.      
   13.76000n  999.9317m    0.      
   13.78000n  999.9317m    0.      
   13.80000n  999.9316m    0.      
   13.82000n  999.9316m    0.      
   13.84000n  999.9316m    0.      
   13.86000n  999.9315m    0.      
   13.88000n  999.9315m    0.      
   13.90000n  999.9315m    0.      
   13.92000n  999.9315m    0.      
   13.94000n  999.9314m    0.      
   13.96000n  999.9314m    0.      
   13.98000n  999.9314m    0.      
   14.00000n  999.9313m    0.      
   14.02000n  999.9313m    0.      
   14.04000n  999.9313m    0.      
   14.06000n  999.9313m    0.      
   14.08000n  999.9312m    0.      
   14.10000n  999.9312m    0.      
   14.12000n  999.9312m    0.      
   14.14000n  999.9311m    0.      
   14.16000n  999.9311m    0.      
   14.18000n  999.9311m    0.      
   14.20000n  999.9311m    0.      
   14.22000n  999.9310m    0.      
   14.24000n  999.9310m    0.      
   14.26000n  999.9310m    0.      
   14.28000n  999.9309m    0.      
   14.30000n  999.9309m    0.      
   14.32000n  999.9309m    0.      
   14.34000n  999.9308m    0.      
   14.36000n  999.9308m    0.      
   14.38000n  999.9308m    0.      
   14.40000n  999.9308m    0.      
   14.42000n  999.9307m    0.      
   14.44000n  999.9307m    0.      
   14.46000n  999.9307m    0.      
   14.48000n  999.9306m    0.      
   14.50000n  999.9306m    0.      
   14.52000n  999.9306m    0.      
   14.54000n  999.9306m    0.      
   14.56000n  999.9305m    0.      
   14.58000n  999.9305m    0.      
   14.60000n  999.9305m    0.      
   14.62000n  999.9304m    0.      
   14.64000n  999.9304m    0.      
   14.66000n  999.9304m    0.      
   14.68000n  999.9304m    0.      
   14.70000n  999.9303m    0.      
   14.72000n  999.9303m    0.      
   14.74000n  999.9303m    0.      
   14.76000n  999.9302m    0.      
   14.78000n  999.9302m    0.      
   14.80000n  999.9302m    0.      
   14.82000n  999.9302m    0.      
   14.84000n  999.9301m    0.      
   14.86000n  999.9301m    0.      
   14.88000n  999.9301m    0.      
   14.90000n  999.9300m    0.      
   14.92000n  999.9300m    0.      
   14.94000n  999.9300m    0.      
   14.96000n  999.9299m    0.      
   14.98000n  999.9299m    0.      
   15.00000n  999.9299m    0.      
   15.02000n  999.9299m    0.      
   15.04000n  999.9300m    0.      
   15.06000n  999.9300m    0.      
   15.08000n  999.9300m    0.      
   15.10000n  999.9301m    0.      
   15.12000n  999.9301m    0.      
   15.14000n  999.9301m    0.      
   15.16000n  999.9302m    0.      
   15.18000n  999.9302m    0.      
   15.20000n  999.9302m    0.      
   15.22000n  999.9303m    0.      
   15.24000n  999.9303m    0.      
   15.26000n  999.9304m    0.      
   15.28000n  999.9304m    0.      
   15.30000n  999.9304m    0.      
   15.32000n  999.9305m    0.      
   15.34000n  999.9305m    0.      
   15.36000n  999.9305m    0.      
   15.38000n  999.9306m    0.      
   15.40000n  999.9306m    0.      
   15.42000n  999.9306m    0.      
   15.44000n  999.9307m    0.      
   15.46000n  999.9307m    0.      
   15.48000n  999.9308m    0.      
   15.50000n  999.9308m    0.      
   15.52000n  999.9308m    0.      
   15.54000n  999.9309m    0.      
   15.56000n  999.9309m    0.      
   15.58000n  999.9309m    0.      
   15.60000n  999.9310m    0.      
   15.62000n  999.9310m    0.      
   15.64000n  999.9310m    0.      
   15.66000n  999.9311m    0.      
   15.68000n  999.9311m    0.      
   15.70000n  999.9311m    0.      
   15.72000n  999.9312m    0.      
   15.74000n  999.9312m    0.      
   15.76000n  999.9313m    0.      
   15.78000n  999.9313m    0.      
   15.80000n  999.9313m    0.      
   15.82000n  999.9314m    0.      
   15.84000n  999.9314m    0.      
   15.86000n  999.9314m    0.      
   15.88000n  999.9315m    0.      
   15.90000n  999.9315m    0.      
   15.92000n  999.9315m    0.      
   15.94000n  999.9316m    0.      
   15.96000n  999.9316m    0.      
   15.98000n  999.9317m    0.      
   16.00000n  999.9317m    0.      
   16.02000n  391.7617m    1.0000  
   16.04000n   77.4721m    1.0000  
   16.06000n   80.3341m    1.0000  
   16.08000n   80.2980m    1.0000  
   16.10000n   80.2991m    1.0000  
   16.12000n   80.2990m    1.0000  
   16.14000n   80.2989m    1.0000  
   16.16000n   80.2988m    1.0000  
   16.18000n   80.2987m    1.0000  
   16.20000n   80.2985m    1.0000  
   16.22000n   80.2984m    1.0000  
   16.24000n   80.2983m    1.0000  
   16.26000n   80.2981m    1.0000  
   16.28000n   80.2980m    1.0000  
   16.30000n   80.2979m    1.0000  
   16.32000n   80.2977m    1.0000  
   16.34000n   80.2978m    1.0000  
   16.36000n   80.2978m    1.0000  
   16.38000n   80.2979m    1.0000  
   16.40000n   80.2979m    1.0000  
   16.42000n   80.2979m    1.0000  
   16.44000n   80.2980m    1.0000  
   16.46000n   80.2980m    1.0000  
   16.48000n   80.2981m    1.0000  
   16.50000n   80.2981m    1.0000  
   16.52000n   80.2982m    1.0000  
   16.54000n   80.2982m    1.0000  
   16.56000n   80.2982m    1.0000  
   16.58000n   80.2983m    1.0000  
   16.60000n   80.2983m    1.0000  
   16.62000n   80.2984m    1.0000  
   16.64000n   80.2984m    1.0000  
   16.66000n   80.2984m    1.0000  
   16.68000n   80.2985m    1.0000  
   16.70000n   80.2985m    1.0000  
   16.72000n   80.2986m    1.0000  
   16.74000n   80.2986m    1.0000  
   16.76000n   80.2987m    1.0000  
   16.78000n   80.2987m    1.0000  
   16.80000n   80.2987m    1.0000  
   16.82000n   80.2988m    1.0000  
   16.84000n   80.2988m    1.0000  
   16.86000n   80.2989m    1.0000  
   16.88000n   80.2989m    1.0000  
   16.90000n   80.2989m    1.0000  
   16.92000n   80.2989m    1.0000  
   16.94000n   80.2989m    1.0000  
   16.96000n   80.2989m    1.0000  
   16.98000n   80.2989m    1.0000  
   17.00000n   80.2989m    1.0000  
   17.02000n   80.2988m    1.0000  
   17.04000n   80.2988m    1.0000  
   17.06000n   80.2988m    1.0000  
   17.08000n   80.2988m    1.0000  
   17.10000n   80.2988m    1.0000  
   17.12000n   80.2988m    1.0000  
   17.14000n   80.2988m    1.0000  
   17.16000n   80.2987m    1.0000  
   17.18000n   80.2987m    1.0000  
   17.20000n   80.2987m    1.0000  
   17.22000n   80.2987m    1.0000  
   17.24000n   80.2987m    1.0000  
   17.26000n   80.2987m    1.0000  
   17.28000n   80.2987m    1.0000  
   17.30000n   80.2987m    1.0000  
   17.32000n   80.2986m    1.0000  
   17.34000n   80.2986m    1.0000  
   17.36000n   80.2986m    1.0000  
   17.38000n   80.2986m    1.0000  
   17.40000n   80.2986m    1.0000  
   17.42000n   80.2986m    1.0000  
   17.44000n   80.2986m    1.0000  
   17.46000n   80.2986m    1.0000  
   17.48000n   80.2985m    1.0000  
   17.50000n   80.2985m    1.0000  
   17.52000n   80.2985m    1.0000  
   17.54000n   80.2985m    1.0000  
   17.56000n   80.2985m    1.0000  
   17.58000n   80.2985m    1.0000  
   17.60000n   80.2985m    1.0000  
   17.62000n   80.2985m    1.0000  
   17.64000n   80.2984m    1.0000  
   17.66000n   80.2984m    1.0000  
   17.68000n   80.2984m    1.0000  
   17.70000n   80.2984m    1.0000  
   17.72000n   80.2984m    1.0000  
   17.74000n   80.2984m    1.0000  
   17.76000n   80.2984m    1.0000  
   17.78000n   80.2984m    1.0000  
   17.80000n   80.2983m    1.0000  
   17.82000n   80.2983m    1.0000  
   17.84000n   80.2983m    1.0000  
   17.86000n   80.2983m    1.0000  
   17.88000n   80.2983m    1.0000  
   17.90000n   80.2983m    1.0000  
   17.92000n   80.2983m    1.0000  
   17.94000n   80.2983m    1.0000  
   17.96000n   80.2982m    1.0000  
   17.98000n   80.2982m    1.0000  
   18.00000n   80.2982m    1.0000  
   18.02000n   80.2982m    1.0000  
   18.04000n   80.2982m    1.0000  
   18.06000n   80.2982m    1.0000  
   18.08000n   80.2982m    1.0000  
   18.10000n   80.2981m    1.0000  
   18.12000n   80.2981m    1.0000  
   18.14000n   80.2981m    1.0000  
   18.16000n   80.2981m    1.0000  
   18.18000n   80.2981m    1.0000  
   18.20000n   80.2981m    1.0000  
   18.22000n   80.2981m    1.0000  
   18.24000n   80.2981m    1.0000  
   18.26000n   80.2980m    1.0000  
   18.28000n   80.2980m    1.0000  
   18.30000n   80.2980m    1.0000  
   18.32000n   80.2980m    1.0000  
   18.34000n   80.2980m    1.0000  
   18.36000n   80.2980m    1.0000  
   18.38000n   80.2980m    1.0000  
   18.40000n   80.2980m    1.0000  
   18.42000n   80.2979m    1.0000  
   18.44000n   80.2979m    1.0000  
   18.46000n   80.2979m    1.0000  
   18.48000n   80.2979m    1.0000  
   18.50000n   80.2979m    1.0000  
   18.52000n   80.2979m    1.0000  
   18.54000n   80.2979m    1.0000  
   18.56000n   80.2979m    1.0000  
   18.58000n   80.2978m    1.0000  
   18.60000n   80.2978m    1.0000  
   18.62000n   80.2978m    1.0000  
   18.64000n   80.2978m    1.0000  
   18.66000n   80.2978m    1.0000  
   18.68000n   80.2978m    1.0000  
   18.70000n   80.2978m    1.0000  
   18.72000n   80.2978m    1.0000  
   18.74000n   80.2978m    1.0000  
   18.76000n   80.2978m    1.0000  
   18.78000n   80.2978m    1.0000  
   18.80000n   80.2978m    1.0000  
   18.82000n   80.2979m    1.0000  
   18.84000n   80.2979m    1.0000  
   18.86000n   80.2979m    1.0000  
   18.88000n   80.2979m    1.0000  
   18.90000n   80.2979m    1.0000  
   18.92000n   80.2979m    1.0000  
   18.94000n   80.2980m    1.0000  
   18.96000n   80.2980m    1.0000  
   18.98000n   80.2980m    1.0000  
   19.00000n   80.2980m    1.0000  
   19.02000n   80.2980m    1.0000  
   19.04000n   80.2980m    1.0000  
   19.06000n   80.2981m    1.0000  
   19.08000n   80.2981m    1.0000  
   19.10000n   80.2981m    1.0000  
   19.12000n   80.2981m    1.0000  
   19.14000n   80.2981m    1.0000  
   19.16000n   80.2982m    1.0000  
   19.18000n   80.2982m    1.0000  
   19.20000n   80.2982m    1.0000  
   19.22000n   80.2982m    1.0000  
   19.24000n   80.2982m    1.0000  
   19.26000n   80.2982m    1.0000  
   19.28000n   80.2983m    1.0000  
   19.30000n   80.2983m    1.0000  
   19.32000n   80.2983m    1.0000  
   19.34000n   80.2983m    1.0000  
   19.36000n   80.2983m    1.0000  
   19.38000n   80.2983m    1.0000  
   19.40000n   80.2984m    1.0000  
   19.42000n   80.2984m    1.0000  
   19.44000n   80.2984m    1.0000  
   19.46000n   80.2984m    1.0000  
   19.48000n   80.2984m    1.0000  
   19.50000n   80.2985m    1.0000  
   19.52000n   80.2985m    1.0000  
   19.54000n   80.2985m    1.0000  
   19.56000n   80.2985m    1.0000  
   19.58000n   80.2985m    1.0000  
   19.60000n   80.2985m    1.0000  
   19.62000n   80.2986m    1.0000  
   19.64000n   80.2986m    1.0000  
   19.66000n   80.2986m    1.0000  
   19.68000n   80.2986m    1.0000  
   19.70000n   80.2986m    1.0000  
   19.72000n   80.2986m    1.0000  
   19.74000n   80.2987m    1.0000  
   19.76000n   80.2987m    1.0000  
   19.78000n   80.2987m    1.0000  
   19.80000n   80.2987m    1.0000  
   19.82000n   80.2987m    1.0000  
   19.84000n   80.2988m    1.0000  
   19.86000n   80.2988m    1.0000  
   19.88000n   80.2988m    1.0000  
   19.90000n   80.2988m    1.0000  
   19.92000n   80.2988m    1.0000  
   19.94000n   80.2988m    1.0000  
   19.96000n   80.2989m    1.0000  
   19.98000n   80.2989m    1.0000  
   20.00000n   80.2989m    1.0000  
   20.02000n  166.7155m  189.5151f 
   20.04000n  396.1209m    0.      
   20.06000n  546.8954m    0.      
   20.08000n  688.1865m    0.      
   20.10000n  779.9857m    0.      
   20.12000n  837.8624m    0.      
   20.14000n  877.7790m    0.      
   20.16000n  917.6956m    0.      
   20.18000n  938.2186m    0.      
   20.20000n  955.8078m    0.      
   20.22000n  970.1112m    0.      
   20.24000n  976.8577m    0.      
   20.26000n  983.6041m    0.      
   20.28000n  990.1383m    0.      
   20.30000n  992.0389m    0.      
   20.32000n  993.9396m    0.      
   20.34000n  995.8403m    0.      
   20.36000n  997.7410m    0.      
   20.38000n  998.3100m    0.      
   20.40000n  998.6220m    0.      
   20.42000n  998.9340m    0.      
   20.44000n  999.2460m    0.      
   20.46000n  999.5579m    0.      
   20.48000n  999.8699m    0.      
   20.50000n  999.8893m    0.      
   20.52000n  999.8959m    0.      
   20.54000n  999.9024m    0.      
   20.56000n  999.9090m    0.      
   20.58000n  999.9155m    0.      
   20.60000n  999.9221m    0.      
   20.62000n  999.9286m    0.      
   20.64000n  999.9351m    0.      
   20.66000n  999.9377m    0.      
   20.68000n  999.9370m    0.      
   20.70000n  999.9362m    0.      
   20.72000n  999.9354m    0.      
   20.74000n  999.9346m    0.      
   20.76000n  999.9338m    0.      
   20.78000n  999.9330m    0.      
   20.80000n  999.9322m    0.      
   20.82000n  999.9314m    0.      
   20.84000n  999.9306m    0.      
   20.86000n  999.9299m    0.      
   20.88000n  999.9291m    0.      
   20.90000n  999.9283m    0.      
   20.92000n  999.9278m    0.      
   20.94000n  999.9280m    0.      
   20.96000n  999.9282m    0.      
   20.98000n  999.9284m    0.      
   21.00000n  999.9285m    0.      
   21.02000n  999.9287m    0.      
   21.04000n  999.9289m    0.      
   21.06000n  999.9291m    0.      
   21.08000n  999.9293m    0.      
   21.10000n  999.9294m    0.      
   21.12000n  999.9296m    0.      
   21.14000n  999.9298m    0.      
   21.16000n  999.9300m    0.      
   21.18000n  999.9301m    0.      
   21.20000n  999.9303m    0.      
   21.22000n  999.9305m    0.      
   21.24000n  999.9307m    0.      
   21.26000n  999.9309m    0.      
   21.28000n  999.9310m    0.      
   21.30000n  999.9312m    0.      
   21.32000n  999.9314m    0.      
   21.34000n  999.9316m    0.      
   21.36000n  999.9318m    0.      
   21.38000n  999.9319m    0.      
   21.40000n  999.9321m    0.      
   21.42000n  999.9322m    0.      
   21.44000n  999.9322m    0.      
   21.46000n  999.9321m    0.      
   21.48000n  999.9321m    0.      
   21.50000n  999.9321m    0.      
   21.52000n  999.9320m    0.      
   21.54000n  999.9320m    0.      
   21.56000n  999.9320m    0.      
   21.58000n  999.9320m    0.      
   21.60000n  999.9319m    0.      
   21.62000n  999.9319m    0.      
   21.64000n  999.9319m    0.      
   21.66000n  999.9318m    0.      
   21.68000n  999.9318m    0.      
   21.70000n  999.9318m    0.      
   21.72000n  999.9317m    0.      
   21.74000n  999.9317m    0.      
   21.76000n  999.9317m    0.      
   21.78000n  999.9317m    0.      
   21.80000n  999.9316m    0.      
   21.82000n  999.9316m    0.      
   21.84000n  999.9316m    0.      
   21.86000n  999.9315m    0.      
   21.88000n  999.9315m    0.      
   21.90000n  999.9315m    0.      
   21.92000n  999.9315m    0.      
   21.94000n  999.9314m    0.      
   21.96000n  999.9314m    0.      
   21.98000n  999.9314m    0.      
   22.00000n  999.9313m    0.      
   22.02000n  999.9313m    0.      
   22.04000n  999.9313m    0.      
   22.06000n  999.9313m    0.      
   22.08000n  999.9312m    0.      
   22.10000n  999.9312m    0.      
   22.12000n  999.9312m    0.      
   22.14000n  999.9311m    0.      
   22.16000n  999.9311m    0.      
   22.18000n  999.9311m    0.      
   22.20000n  999.9311m    0.      
   22.22000n  999.9310m    0.      
   22.24000n  999.9310m    0.      
   22.26000n  999.9310m    0.      
   22.28000n  999.9309m    0.      
   22.30000n  999.9309m    0.      
   22.32000n  999.9309m    0.      
   22.34000n  999.9308m    0.      
   22.36000n  999.9308m    0.      
   22.38000n  999.9308m    0.      
   22.40000n  999.9308m    0.      
   22.42000n  999.9307m    0.      
   22.44000n  999.9307m    0.      
   22.46000n  999.9307m    0.      
   22.48000n  999.9306m    0.      
   22.50000n  999.9306m    0.      
   22.52000n  999.9306m    0.      
   22.54000n  999.9306m    0.      
   22.56000n  999.9305m    0.      
   22.58000n  999.9305m    0.      
   22.60000n  999.9305m    0.      
   22.62000n  999.9304m    0.      
   22.64000n  999.9304m    0.      
   22.66000n  999.9304m    0.      
   22.68000n  999.9304m    0.      
   22.70000n  999.9303m    0.      
   22.72000n  999.9303m    0.      
   22.74000n  999.9303m    0.      
   22.76000n  999.9302m    0.      
   22.78000n  999.9302m    0.      
   22.80000n  999.9302m    0.      
   22.82000n  999.9302m    0.      
   22.84000n  999.9301m    0.      
   22.86000n  999.9301m    0.      
   22.88000n  999.9301m    0.      
   22.90000n  999.9300m    0.      
   22.92000n  999.9300m    0.      
   22.94000n  999.9300m    0.      
   22.96000n  999.9299m    0.      
   22.98000n  999.9299m    0.      
   23.00000n  999.9299m    0.      
   23.02000n  999.9299m    0.      
   23.04000n  999.9300m    0.      
   23.06000n  999.9300m    0.      
   23.08000n  999.9300m    0.      
   23.10000n  999.9301m    0.      
   23.12000n  999.9301m    0.      
   23.14000n  999.9301m    0.      
   23.16000n  999.9302m    0.      
   23.18000n  999.9302m    0.      
   23.20000n  999.9302m    0.      
   23.22000n  999.9303m    0.      
   23.24000n  999.9303m    0.      
   23.26000n  999.9304m    0.      
   23.28000n  999.9304m    0.      
   23.30000n  999.9304m    0.      
   23.32000n  999.9305m    0.      
   23.34000n  999.9305m    0.      
   23.36000n  999.9305m    0.      
   23.38000n  999.9306m    0.      
   23.40000n  999.9306m    0.      
   23.42000n  999.9306m    0.      
   23.44000n  999.9307m    0.      
   23.46000n  999.9307m    0.      
   23.48000n  999.9308m    0.      
   23.50000n  999.9308m    0.      
   23.52000n  999.9308m    0.      
   23.54000n  999.9309m    0.      
   23.56000n  999.9309m    0.      
   23.58000n  999.9309m    0.      
   23.60000n  999.9310m    0.      
   23.62000n  999.9310m    0.      
   23.64000n  999.9310m    0.      
   23.66000n  999.9311m    0.      
   23.68000n  999.9311m    0.      
   23.70000n  999.9311m    0.      
   23.72000n  999.9312m    0.      
   23.74000n  999.9312m    0.      
   23.76000n  999.9313m    0.      
   23.78000n  999.9313m    0.      
   23.80000n  999.9313m    0.      
   23.82000n  999.9314m    0.      
   23.84000n  999.9314m    0.      
   23.86000n  999.9314m    0.      
   23.88000n  999.9315m    0.      
   23.90000n  999.9315m    0.      
   23.92000n  999.9315m    0.      
   23.94000n  999.9316m    0.      
   23.96000n  999.9316m    0.      
   23.98000n  999.9317m    0.      
   24.00000n  999.9317m    0.      
   24.02000n  391.7617m    1.0000  
   24.04000n   77.4721m    1.0000  
   24.06000n   80.3341m    1.0000  
   24.08000n   80.2980m    1.0000  
   24.10000n   80.2991m    1.0000  
   24.12000n   80.2990m    1.0000  
   24.14000n   80.2989m    1.0000  
   24.16000n   80.2988m    1.0000  
   24.18000n   80.2987m    1.0000  
   24.20000n   80.2985m    1.0000  
   24.22000n   80.2984m    1.0000  
   24.24000n   80.2983m    1.0000  
   24.26000n   80.2981m    1.0000  
   24.28000n   80.2980m    1.0000  
   24.30000n   80.2979m    1.0000  
   24.32000n   80.2977m    1.0000  
   24.34000n   80.2978m    1.0000  
   24.36000n   80.2978m    1.0000  
   24.38000n   80.2979m    1.0000  
   24.40000n   80.2979m    1.0000  
   24.42000n   80.2979m    1.0000  
   24.44000n   80.2980m    1.0000  
   24.46000n   80.2980m    1.0000  
   24.48000n   80.2981m    1.0000  
   24.50000n   80.2981m    1.0000  
   24.52000n   80.2982m    1.0000  
   24.54000n   80.2982m    1.0000  
   24.56000n   80.2982m    1.0000  
   24.58000n   80.2983m    1.0000  
   24.60000n   80.2983m    1.0000  
   24.62000n   80.2984m    1.0000  
   24.64000n   80.2984m    1.0000  
   24.66000n   80.2984m    1.0000  
   24.68000n   80.2985m    1.0000  
   24.70000n   80.2985m    1.0000  
   24.72000n   80.2986m    1.0000  
   24.74000n   80.2986m    1.0000  
   24.76000n   80.2987m    1.0000  
   24.78000n   80.2987m    1.0000  
   24.80000n   80.2987m    1.0000  
   24.82000n   80.2988m    1.0000  
   24.84000n   80.2988m    1.0000  
   24.86000n   80.2989m    1.0000  
   24.88000n   80.2989m    1.0000  
   24.90000n   80.2989m    1.0000  
   24.92000n   80.2989m    1.0000  
   24.94000n   80.2989m    1.0000  
   24.96000n   80.2989m    1.0000  
   24.98000n   80.2989m    1.0000  
   25.00000n   80.2989m    1.0000  
   25.02000n   80.2988m    1.0000  
   25.04000n   80.2988m    1.0000  
   25.06000n   80.2988m    1.0000  
   25.08000n   80.2988m    1.0000  
   25.10000n   80.2988m    1.0000  
   25.12000n   80.2988m    1.0000  
   25.14000n   80.2988m    1.0000  
   25.16000n   80.2987m    1.0000  
   25.18000n   80.2987m    1.0000  
   25.20000n   80.2987m    1.0000  
   25.22000n   80.2987m    1.0000  
   25.24000n   80.2987m    1.0000  
   25.26000n   80.2987m    1.0000  
   25.28000n   80.2987m    1.0000  
   25.30000n   80.2987m    1.0000  
   25.32000n   80.2986m    1.0000  
   25.34000n   80.2986m    1.0000  
   25.36000n   80.2986m    1.0000  
   25.38000n   80.2986m    1.0000  
   25.40000n   80.2986m    1.0000  
   25.42000n   80.2986m    1.0000  
   25.44000n   80.2986m    1.0000  
   25.46000n   80.2986m    1.0000  
   25.48000n   80.2985m    1.0000  
   25.50000n   80.2985m    1.0000  
   25.52000n   80.2985m    1.0000  
   25.54000n   80.2985m    1.0000  
   25.56000n   80.2985m    1.0000  
   25.58000n   80.2985m    1.0000  
   25.60000n   80.2985m    1.0000  
   25.62000n   80.2985m    1.0000  
   25.64000n   80.2984m    1.0000  
   25.66000n   80.2984m    1.0000  
   25.68000n   80.2984m    1.0000  
   25.70000n   80.2984m    1.0000  
   25.72000n   80.2984m    1.0000  
   25.74000n   80.2984m    1.0000  
   25.76000n   80.2984m    1.0000  
   25.78000n   80.2984m    1.0000  
   25.80000n   80.2983m    1.0000  
   25.82000n   80.2983m    1.0000  
   25.84000n   80.2983m    1.0000  
   25.86000n   80.2983m    1.0000  
   25.88000n   80.2983m    1.0000  
   25.90000n   80.2983m    1.0000  
   25.92000n   80.2983m    1.0000  
   25.94000n   80.2983m    1.0000  
   25.96000n   80.2982m    1.0000  
   25.98000n   80.2982m    1.0000  
   26.00000n   80.2982m    1.0000  
   26.02000n   80.2982m    1.0000  
   26.04000n   80.2982m    1.0000  
   26.06000n   80.2982m    1.0000  
   26.08000n   80.2982m    1.0000  
   26.10000n   80.2981m    1.0000  
   26.12000n   80.2981m    1.0000  
   26.14000n   80.2981m    1.0000  
   26.16000n   80.2981m    1.0000  
   26.18000n   80.2981m    1.0000  
   26.20000n   80.2981m    1.0000  
   26.22000n   80.2981m    1.0000  
   26.24000n   80.2981m    1.0000  
   26.26000n   80.2980m    1.0000  
   26.28000n   80.2980m    1.0000  
   26.30000n   80.2980m    1.0000  
   26.32000n   80.2980m    1.0000  
   26.34000n   80.2980m    1.0000  
   26.36000n   80.2980m    1.0000  
   26.38000n   80.2980m    1.0000  
   26.40000n   80.2980m    1.0000  
   26.42000n   80.2979m    1.0000  
   26.44000n   80.2979m    1.0000  
   26.46000n   80.2979m    1.0000  
   26.48000n   80.2979m    1.0000  
   26.50000n   80.2979m    1.0000  
   26.52000n   80.2979m    1.0000  
   26.54000n   80.2979m    1.0000  
   26.56000n   80.2979m    1.0000  
   26.58000n   80.2978m    1.0000  
   26.60000n   80.2978m    1.0000  
   26.62000n   80.2978m    1.0000  
   26.64000n   80.2978m    1.0000  
   26.66000n   80.2978m    1.0000  
   26.68000n   80.2978m    1.0000  
   26.70000n   80.2978m    1.0000  
   26.72000n   80.2978m    1.0000  
   26.74000n   80.2978m    1.0000  
   26.76000n   80.2978m    1.0000  
   26.78000n   80.2978m    1.0000  
   26.80000n   80.2978m    1.0000  
   26.82000n   80.2979m    1.0000  
   26.84000n   80.2979m    1.0000  
   26.86000n   80.2979m    1.0000  
   26.88000n   80.2979m    1.0000  
   26.90000n   80.2979m    1.0000  
   26.92000n   80.2979m    1.0000  
   26.94000n   80.2980m    1.0000  
   26.96000n   80.2980m    1.0000  
   26.98000n   80.2980m    1.0000  
   27.00000n   80.2980m    1.0000  
   27.02000n   80.2980m    1.0000  
   27.04000n   80.2980m    1.0000  
   27.06000n   80.2981m    1.0000  
   27.08000n   80.2981m    1.0000  
   27.10000n   80.2981m    1.0000  
   27.12000n   80.2981m    1.0000  
   27.14000n   80.2981m    1.0000  
   27.16000n   80.2982m    1.0000  
   27.18000n   80.2982m    1.0000  
   27.20000n   80.2982m    1.0000  
   27.22000n   80.2982m    1.0000  
   27.24000n   80.2982m    1.0000  
   27.26000n   80.2982m    1.0000  
   27.28000n   80.2983m    1.0000  
   27.30000n   80.2983m    1.0000  
   27.32000n   80.2983m    1.0000  
   27.34000n   80.2983m    1.0000  
   27.36000n   80.2983m    1.0000  
   27.38000n   80.2983m    1.0000  
   27.40000n   80.2984m    1.0000  
   27.42000n   80.2984m    1.0000  
   27.44000n   80.2984m    1.0000  
   27.46000n   80.2984m    1.0000  
   27.48000n   80.2984m    1.0000  
   27.50000n   80.2985m    1.0000  
   27.52000n   80.2985m    1.0000  
   27.54000n   80.2985m    1.0000  
   27.56000n   80.2985m    1.0000  
   27.58000n   80.2985m    1.0000  
   27.60000n   80.2985m    1.0000  
   27.62000n   80.2986m    1.0000  
   27.64000n   80.2986m    1.0000  
   27.66000n   80.2986m    1.0000  
   27.68000n   80.2986m    1.0000  
   27.70000n   80.2986m    1.0000  
   27.72000n   80.2986m    1.0000  
   27.74000n   80.2987m    1.0000  
   27.76000n   80.2987m    1.0000  
   27.78000n   80.2987m    1.0000  
   27.80000n   80.2987m    1.0000  
   27.82000n   80.2987m    1.0000  
   27.84000n   80.2988m    1.0000  
   27.86000n   80.2988m    1.0000  
   27.88000n   80.2988m    1.0000  
   27.90000n   80.2988m    1.0000  
   27.92000n   80.2988m    1.0000  
   27.94000n   80.2988m    1.0000  
   27.96000n   80.2989m    1.0000  
   27.98000n   80.2989m    1.0000  
   28.00000n   80.2989m    1.0000  
   28.02000n  166.7155m  189.5151f 
   28.04000n  396.1209m    0.      
   28.06000n  546.8954m    0.      
   28.08000n  688.1865m    0.      
   28.10000n  779.9857m    0.      
   28.12000n  837.8624m    0.      
   28.14000n  877.7790m    0.      
   28.16000n  917.6956m    0.      
   28.18000n  938.2186m    0.      
   28.20000n  955.8078m    0.      
   28.22000n  970.1112m    0.      
   28.24000n  976.8577m    0.      
   28.26000n  983.6041m    0.      
   28.28000n  990.1383m    0.      
   28.30000n  992.0389m    0.      
   28.32000n  993.9396m    0.      
   28.34000n  995.8403m    0.      
   28.36000n  997.7410m    0.      
   28.38000n  998.3100m    0.      
   28.40000n  998.6220m    0.      
   28.42000n  998.9340m    0.      
   28.44000n  999.2460m    0.      
   28.46000n  999.5579m    0.      
   28.48000n  999.8699m    0.      
   28.50000n  999.8893m    0.      
   28.52000n  999.8959m    0.      
   28.54000n  999.9024m    0.      
   28.56000n  999.9090m    0.      
   28.58000n  999.9155m    0.      
   28.60000n  999.9221m    0.      
   28.62000n  999.9286m    0.      
   28.64000n  999.9351m    0.      
   28.66000n  999.9377m    0.      
   28.68000n  999.9370m    0.      
   28.70000n  999.9362m    0.      
   28.72000n  999.9354m    0.      
   28.74000n  999.9346m    0.      
   28.76000n  999.9338m    0.      
   28.78000n  999.9330m    0.      
   28.80000n  999.9322m    0.      
   28.82000n  999.9314m    0.      
   28.84000n  999.9306m    0.      
   28.86000n  999.9299m    0.      
   28.88000n  999.9291m    0.      
   28.90000n  999.9283m    0.      
   28.92000n  999.9278m    0.      
   28.94000n  999.9280m    0.      
   28.96000n  999.9282m    0.      
   28.98000n  999.9284m    0.      
   29.00000n  999.9285m    0.      
   29.02000n  999.9287m    0.      
   29.04000n  999.9289m    0.      
   29.06000n  999.9291m    0.      
   29.08000n  999.9293m    0.      
   29.10000n  999.9294m    0.      
   29.12000n  999.9296m    0.      
   29.14000n  999.9298m    0.      
   29.16000n  999.9300m    0.      
   29.18000n  999.9301m    0.      
   29.20000n  999.9303m    0.      
   29.22000n  999.9305m    0.      
   29.24000n  999.9307m    0.      
   29.26000n  999.9309m    0.      
   29.28000n  999.9310m    0.      
   29.30000n  999.9312m    0.      
   29.32000n  999.9314m    0.      
   29.34000n  999.9316m    0.      
   29.36000n  999.9318m    0.      
   29.38000n  999.9319m    0.      
   29.40000n  999.9321m    0.      
   29.42000n  999.9322m    0.      
   29.44000n  999.9322m    0.      
   29.46000n  999.9321m    0.      
   29.48000n  999.9321m    0.      
   29.50000n  999.9321m    0.      
   29.52000n  999.9320m    0.      
   29.54000n  999.9320m    0.      
   29.56000n  999.9320m    0.      
   29.58000n  999.9320m    0.      
   29.60000n  999.9319m    0.      
   29.62000n  999.9319m    0.      
   29.64000n  999.9319m    0.      
   29.66000n  999.9318m    0.      
   29.68000n  999.9318m    0.      
   29.70000n  999.9318m    0.      
   29.72000n  999.9317m    0.      
   29.74000n  999.9317m    0.      
   29.76000n  999.9317m    0.      
   29.78000n  999.9317m    0.      
   29.80000n  999.9316m    0.      
   29.82000n  999.9316m    0.      
   29.84000n  999.9316m    0.      
   29.86000n  999.9315m    0.      
   29.88000n  999.9315m    0.      
   29.90000n  999.9315m    0.      
   29.92000n  999.9315m    0.      
   29.94000n  999.9314m    0.      
   29.96000n  999.9314m    0.      
   29.98000n  999.9314m    0.      
   30.00000n  999.9313m    0.      
   30.02000n  999.9313m    0.      
   30.04000n  999.9313m    0.      
   30.06000n  999.9313m    0.      
   30.08000n  999.9312m    0.      
   30.10000n  999.9312m    0.      
   30.12000n  999.9312m    0.      
   30.14000n  999.9311m    0.      
   30.16000n  999.9311m    0.      
   30.18000n  999.9311m    0.      
   30.20000n  999.9311m    0.      
   30.22000n  999.9310m    0.      
   30.24000n  999.9310m    0.      
   30.26000n  999.9310m    0.      
   30.28000n  999.9309m    0.      
   30.30000n  999.9309m    0.      
   30.32000n  999.9309m    0.      
   30.34000n  999.9308m    0.      
   30.36000n  999.9308m    0.      
   30.38000n  999.9308m    0.      
   30.40000n  999.9308m    0.      
   30.42000n  999.9307m    0.      
   30.44000n  999.9307m    0.      
   30.46000n  999.9307m    0.      
   30.48000n  999.9306m    0.      
   30.50000n  999.9306m    0.      
   30.52000n  999.9306m    0.      
   30.54000n  999.9306m    0.      
   30.56000n  999.9305m    0.      
   30.58000n  999.9305m    0.      
   30.60000n  999.9305m    0.      
   30.62000n  999.9304m    0.      
   30.64000n  999.9304m    0.      
   30.66000n  999.9304m    0.      
   30.68000n  999.9304m    0.      
   30.70000n  999.9303m    0.      
   30.72000n  999.9303m    0.      
   30.74000n  999.9303m    0.      
   30.76000n  999.9302m    0.      
   30.78000n  999.9302m    0.      
   30.80000n  999.9302m    0.      
   30.82000n  999.9302m    0.      
   30.84000n  999.9301m    0.      
   30.86000n  999.9301m    0.      
   30.88000n  999.9301m    0.      
   30.90000n  999.9300m    0.      
   30.92000n  999.9300m    0.      
   30.94000n  999.9300m    0.      
   30.96000n  999.9299m    0.      
   30.98000n  999.9299m    0.      
   31.00000n  999.9299m    0.      
   31.02000n  999.9299m    0.      
   31.04000n  999.9300m    0.      
   31.06000n  999.9300m    0.      
   31.08000n  999.9300m    0.      
   31.10000n  999.9301m    0.      
   31.12000n  999.9301m    0.      
   31.14000n  999.9301m    0.      
   31.16000n  999.9302m    0.      
   31.18000n  999.9302m    0.      
   31.20000n  999.9302m    0.      
   31.22000n  999.9303m    0.      
   31.24000n  999.9303m    0.      
   31.26000n  999.9304m    0.      
   31.28000n  999.9304m    0.      
   31.30000n  999.9304m    0.      
   31.32000n  999.9305m    0.      
   31.34000n  999.9305m    0.      
   31.36000n  999.9305m    0.      
   31.38000n  999.9306m    0.      
   31.40000n  999.9306m    0.      
   31.42000n  999.9306m    0.      
   31.44000n  999.9307m    0.      
   31.46000n  999.9307m    0.      
   31.48000n  999.9308m    0.      
   31.50000n  999.9308m    0.      
   31.52000n  999.9308m    0.      
   31.54000n  999.9309m    0.      
   31.56000n  999.9309m    0.      
   31.58000n  999.9309m    0.      
   31.60000n  999.9310m    0.      
   31.62000n  999.9310m    0.      
   31.64000n  999.9310m    0.      
   31.66000n  999.9311m    0.      
   31.68000n  999.9311m    0.      
   31.70000n  999.9311m    0.      
   31.72000n  999.9312m    0.      
   31.74000n  999.9312m    0.      
   31.76000n  999.9313m    0.      
   31.78000n  999.9313m    0.      
   31.80000n  999.9313m    0.      
   31.82000n  999.9314m    0.      
   31.84000n  999.9314m    0.      
   31.86000n  999.9314m    0.      
   31.88000n  999.9315m    0.      
   31.90000n  999.9315m    0.      
   31.92000n  999.9315m    0.      
   31.94000n  999.9316m    0.      
   31.96000n  999.9316m    0.      
   31.98000n  999.9317m    0.      
   32.00000n  999.9317m    0.      
   32.02000n  391.7617m    1.0000  
   32.04000n   77.4721m    1.0000  
   32.06000n   80.3341m    1.0000  
   32.08000n   80.2980m    1.0000  
   32.10000n   80.2991m    1.0000  
   32.12000n   80.2990m    1.0000  
   32.14000n   80.2989m    1.0000  
   32.16000n   80.2988m    1.0000  
   32.18000n   80.2987m    1.0000  
   32.20000n   80.2985m    1.0000  
   32.22000n   80.2984m    1.0000  
   32.24000n   80.2983m    1.0000  
   32.26000n   80.2981m    1.0000  
   32.28000n   80.2980m    1.0000  
   32.30000n   80.2979m    1.0000  
   32.32000n   80.2977m    1.0000  
   32.34000n   80.2978m    1.0000  
   32.36000n   80.2978m    1.0000  
   32.38000n   80.2979m    1.0000  
   32.40000n   80.2979m    1.0000  
   32.42000n   80.2979m    1.0000  
   32.44000n   80.2980m    1.0000  
   32.46000n   80.2980m    1.0000  
   32.48000n   80.2981m    1.0000  
   32.50000n   80.2981m    1.0000  
   32.52000n   80.2982m    1.0000  
   32.54000n   80.2982m    1.0000  
   32.56000n   80.2982m    1.0000  
   32.58000n   80.2983m    1.0000  
   32.60000n   80.2983m    1.0000  
   32.62000n   80.2984m    1.0000  
   32.64000n   80.2984m    1.0000  
   32.66000n   80.2984m    1.0000  
   32.68000n   80.2985m    1.0000  
   32.70000n   80.2985m    1.0000  
   32.72000n   80.2986m    1.0000  
   32.74000n   80.2986m    1.0000  
   32.76000n   80.2987m    1.0000  
   32.78000n   80.2987m    1.0000  
   32.80000n   80.2987m    1.0000  
   32.82000n   80.2988m    1.0000  
   32.84000n   80.2988m    1.0000  
   32.86000n   80.2989m    1.0000  
   32.88000n   80.2989m    1.0000  
   32.90000n   80.2989m    1.0000  
   32.92000n   80.2989m    1.0000  
   32.94000n   80.2989m    1.0000  
   32.96000n   80.2989m    1.0000  
   32.98000n   80.2989m    1.0000  
   33.00000n   80.2989m    1.0000  
   33.02000n   80.2988m    1.0000  
   33.04000n   80.2988m    1.0000  
   33.06000n   80.2988m    1.0000  
   33.08000n   80.2988m    1.0000  
   33.10000n   80.2988m    1.0000  
   33.12000n   80.2988m    1.0000  
   33.14000n   80.2988m    1.0000  
   33.16000n   80.2987m    1.0000  
   33.18000n   80.2987m    1.0000  
   33.20000n   80.2987m    1.0000  
   33.22000n   80.2987m    1.0000  
   33.24000n   80.2987m    1.0000  
   33.26000n   80.2987m    1.0000  
   33.28000n   80.2987m    1.0000  
   33.30000n   80.2987m    1.0000  
   33.32000n   80.2986m    1.0000  
   33.34000n   80.2986m    1.0000  
   33.36000n   80.2986m    1.0000  
   33.38000n   80.2986m    1.0000  
   33.40000n   80.2986m    1.0000  
   33.42000n   80.2986m    1.0000  
   33.44000n   80.2986m    1.0000  
   33.46000n   80.2986m    1.0000  
   33.48000n   80.2985m    1.0000  
   33.50000n   80.2985m    1.0000  
   33.52000n   80.2985m    1.0000  
   33.54000n   80.2985m    1.0000  
   33.56000n   80.2985m    1.0000  
   33.58000n   80.2985m    1.0000  
   33.60000n   80.2985m    1.0000  
   33.62000n   80.2985m    1.0000  
   33.64000n   80.2984m    1.0000  
   33.66000n   80.2984m    1.0000  
   33.68000n   80.2984m    1.0000  
   33.70000n   80.2984m    1.0000  
   33.72000n   80.2984m    1.0000  
   33.74000n   80.2984m    1.0000  
   33.76000n   80.2984m    1.0000  
   33.78000n   80.2984m    1.0000  
   33.80000n   80.2983m    1.0000  
   33.82000n   80.2983m    1.0000  
   33.84000n   80.2983m    1.0000  
   33.86000n   80.2983m    1.0000  
   33.88000n   80.2983m    1.0000  
   33.90000n   80.2983m    1.0000  
   33.92000n   80.2983m    1.0000  
   33.94000n   80.2983m    1.0000  
   33.96000n   80.2982m    1.0000  
   33.98000n   80.2982m    1.0000  
   34.00000n   80.2982m    1.0000  
   34.02000n   80.2982m    1.0000  
   34.04000n   80.2982m    1.0000  
   34.06000n   80.2982m    1.0000  
   34.08000n   80.2982m    1.0000  
   34.10000n   80.2981m    1.0000  
   34.12000n   80.2981m    1.0000  
   34.14000n   80.2981m    1.0000  
   34.16000n   80.2981m    1.0000  
   34.18000n   80.2981m    1.0000  
   34.20000n   80.2981m    1.0000  
   34.22000n   80.2981m    1.0000  
   34.24000n   80.2981m    1.0000  
   34.26000n   80.2980m    1.0000  
   34.28000n   80.2980m    1.0000  
   34.30000n   80.2980m    1.0000  
   34.32000n   80.2980m    1.0000  
   34.34000n   80.2980m    1.0000  
   34.36000n   80.2980m    1.0000  
   34.38000n   80.2980m    1.0000  
   34.40000n   80.2980m    1.0000  
   34.42000n   80.2979m    1.0000  
   34.44000n   80.2979m    1.0000  
   34.46000n   80.2979m    1.0000  
   34.48000n   80.2979m    1.0000  
   34.50000n   80.2979m    1.0000  
   34.52000n   80.2979m    1.0000  
   34.54000n   80.2979m    1.0000  
   34.56000n   80.2979m    1.0000  
   34.58000n   80.2978m    1.0000  
   34.60000n   80.2978m    1.0000  
   34.62000n   80.2978m    1.0000  
   34.64000n   80.2978m    1.0000  
   34.66000n   80.2978m    1.0000  
   34.68000n   80.2978m    1.0000  
   34.70000n   80.2978m    1.0000  
   34.72000n   80.2978m    1.0000  
   34.74000n   80.2978m    1.0000  
   34.76000n   80.2978m    1.0000  
   34.78000n   80.2978m    1.0000  
   34.80000n   80.2978m    1.0000  
   34.82000n   80.2979m    1.0000  
   34.84000n   80.2979m    1.0000  
   34.86000n   80.2979m    1.0000  
   34.88000n   80.2979m    1.0000  
   34.90000n   80.2979m    1.0000  
   34.92000n   80.2979m    1.0000  
   34.94000n   80.2980m    1.0000  
   34.96000n   80.2980m    1.0000  
   34.98000n   80.2980m    1.0000  
   35.00000n   80.2980m    1.0000  
   35.02000n   80.2980m    1.0000  
   35.04000n   80.2980m    1.0000  
   35.06000n   80.2981m    1.0000  
   35.08000n   80.2981m    1.0000  
   35.10000n   80.2981m    1.0000  
   35.12000n   80.2981m    1.0000  
   35.14000n   80.2981m    1.0000  
   35.16000n   80.2982m    1.0000  
   35.18000n   80.2982m    1.0000  
   35.20000n   80.2982m    1.0000  
   35.22000n   80.2982m    1.0000  
   35.24000n   80.2982m    1.0000  
   35.26000n   80.2982m    1.0000  
   35.28000n   80.2983m    1.0000  
   35.30000n   80.2983m    1.0000  
   35.32000n   80.2983m    1.0000  
   35.34000n   80.2983m    1.0000  
   35.36000n   80.2983m    1.0000  
   35.38000n   80.2983m    1.0000  
   35.40000n   80.2984m    1.0000  
   35.42000n   80.2984m    1.0000  
   35.44000n   80.2984m    1.0000  
   35.46000n   80.2984m    1.0000  
   35.48000n   80.2984m    1.0000  
   35.50000n   80.2985m    1.0000  
   35.52000n   80.2985m    1.0000  
   35.54000n   80.2985m    1.0000  
   35.56000n   80.2985m    1.0000  
   35.58000n   80.2985m    1.0000  
   35.60000n   80.2985m    1.0000  
   35.62000n   80.2986m    1.0000  
   35.64000n   80.2986m    1.0000  
   35.66000n   80.2986m    1.0000  
   35.68000n   80.2986m    1.0000  
   35.70000n   80.2986m    1.0000  
   35.72000n   80.2986m    1.0000  
   35.74000n   80.2987m    1.0000  
   35.76000n   80.2987m    1.0000  
   35.78000n   80.2987m    1.0000  
   35.80000n   80.2987m    1.0000  
   35.82000n   80.2987m    1.0000  
   35.84000n   80.2988m    1.0000  
   35.86000n   80.2988m    1.0000  
   35.88000n   80.2988m    1.0000  
   35.90000n   80.2988m    1.0000  
   35.92000n   80.2988m    1.0000  
   35.94000n   80.2988m    1.0000  
   35.96000n   80.2989m    1.0000  
   35.98000n   80.2989m    1.0000  
   36.00000n   80.2989m    1.0000  
   36.02000n  166.7155m    0.      
   36.04000n  396.1209m    0.      
   36.06000n  546.8954m    0.      
   36.08000n  688.1865m    0.      
   36.10000n  779.9857m    0.      
   36.12000n  837.8624m    0.      
   36.14000n  877.7790m    0.      
   36.16000n  917.6956m    0.      
   36.18000n  938.2186m    0.      
   36.20000n  955.8078m    0.      
   36.22000n  970.1112m    0.      
   36.24000n  976.8577m    0.      
   36.26000n  983.6041m    0.      
   36.28000n  990.1383m    0.      
   36.30000n  992.0389m    0.      
   36.32000n  993.9396m    0.      
   36.34000n  995.8403m    0.      
   36.36000n  997.7410m    0.      
   36.38000n  998.3100m    0.      
   36.40000n  998.6220m    0.      
   36.42000n  998.9340m    0.      
   36.44000n  999.2460m    0.      
   36.46000n  999.5579m    0.      
   36.48000n  999.8699m    0.      
   36.50000n  999.8893m    0.      
   36.52000n  999.8959m    0.      
   36.54000n  999.9024m    0.      
   36.56000n  999.9090m    0.      
   36.58000n  999.9155m    0.      
   36.60000n  999.9221m    0.      
   36.62000n  999.9286m    0.      
   36.64000n  999.9351m    0.      
   36.66000n  999.9377m    0.      
   36.68000n  999.9370m    0.      
   36.70000n  999.9362m    0.      
   36.72000n  999.9354m    0.      
   36.74000n  999.9346m    0.      
   36.76000n  999.9338m    0.      
   36.78000n  999.9330m    0.      
   36.80000n  999.9322m    0.      
   36.82000n  999.9314m    0.      
   36.84000n  999.9306m    0.      
   36.86000n  999.9299m    0.      
   36.88000n  999.9291m    0.      
   36.90000n  999.9283m    0.      
   36.92000n  999.9278m    0.      
   36.94000n  999.9280m    0.      
   36.96000n  999.9282m    0.      
   36.98000n  999.9284m    0.      
   37.00000n  999.9285m    0.      
   37.02000n  999.9287m    0.      
   37.04000n  999.9289m    0.      
   37.06000n  999.9291m    0.      
   37.08000n  999.9293m    0.      
   37.10000n  999.9294m    0.      
   37.12000n  999.9296m    0.      
   37.14000n  999.9298m    0.      
   37.16000n  999.9300m    0.      
   37.18000n  999.9301m    0.      
   37.20000n  999.9303m    0.      
   37.22000n  999.9305m    0.      
   37.24000n  999.9307m    0.      
   37.26000n  999.9309m    0.      
   37.28000n  999.9310m    0.      
   37.30000n  999.9312m    0.      
   37.32000n  999.9314m    0.      
   37.34000n  999.9316m    0.      
   37.36000n  999.9318m    0.      
   37.38000n  999.9319m    0.      
   37.40000n  999.9321m    0.      
   37.42000n  999.9322m    0.      
   37.44000n  999.9322m    0.      
   37.46000n  999.9321m    0.      
   37.48000n  999.9321m    0.      
   37.50000n  999.9321m    0.      
   37.52000n  999.9320m    0.      
   37.54000n  999.9320m    0.      
   37.56000n  999.9320m    0.      
   37.58000n  999.9320m    0.      
   37.60000n  999.9319m    0.      
   37.62000n  999.9319m    0.      
   37.64000n  999.9319m    0.      
   37.66000n  999.9318m    0.      
   37.68000n  999.9318m    0.      
   37.70000n  999.9318m    0.      
   37.72000n  999.9317m    0.      
   37.74000n  999.9317m    0.      
   37.76000n  999.9317m    0.      
   37.78000n  999.9317m    0.      
   37.80000n  999.9316m    0.      
   37.82000n  999.9316m    0.      
   37.84000n  999.9316m    0.      
   37.86000n  999.9315m    0.      
   37.88000n  999.9315m    0.      
   37.90000n  999.9315m    0.      
   37.92000n  999.9315m    0.      
   37.94000n  999.9314m    0.      
   37.96000n  999.9314m    0.      
   37.98000n  999.9314m    0.      
   38.00000n  999.9313m    0.      
   38.02000n  999.9313m    0.      
   38.04000n  999.9313m    0.      
   38.06000n  999.9313m    0.      
   38.08000n  999.9312m    0.      
   38.10000n  999.9312m    0.      
   38.12000n  999.9312m    0.      
   38.14000n  999.9311m    0.      
   38.16000n  999.9311m    0.      
   38.18000n  999.9311m    0.      
   38.20000n  999.9311m    0.      
   38.22000n  999.9310m    0.      
   38.24000n  999.9310m    0.      
   38.26000n  999.9310m    0.      
   38.28000n  999.9309m    0.      
   38.30000n  999.9309m    0.      
   38.32000n  999.9309m    0.      
   38.34000n  999.9308m    0.      
   38.36000n  999.9308m    0.      
   38.38000n  999.9308m    0.      
   38.40000n  999.9308m    0.      
   38.42000n  999.9307m    0.      
   38.44000n  999.9307m    0.      
   38.46000n  999.9307m    0.      
   38.48000n  999.9306m    0.      
   38.50000n  999.9306m    0.      
   38.52000n  999.9306m    0.      
   38.54000n  999.9306m    0.      
   38.56000n  999.9305m    0.      
   38.58000n  999.9305m    0.      
   38.60000n  999.9305m    0.      
   38.62000n  999.9304m    0.      
   38.64000n  999.9304m    0.      
   38.66000n  999.9304m    0.      
   38.68000n  999.9304m    0.      
   38.70000n  999.9303m    0.      
   38.72000n  999.9303m    0.      
   38.74000n  999.9303m    0.      
   38.76000n  999.9302m    0.      
   38.78000n  999.9302m    0.      
   38.80000n  999.9302m    0.      
   38.82000n  999.9302m    0.      
   38.84000n  999.9301m    0.      
   38.86000n  999.9301m    0.      
   38.88000n  999.9301m    0.      
   38.90000n  999.9300m    0.      
   38.92000n  999.9300m    0.      
   38.94000n  999.9300m    0.      
   38.96000n  999.9299m    0.      
[...]
   40.22000n   80.2984m    1.0000  
   40.24000n   80.2983m    1.0000  
   40.26000n   80.2981m    1.0000  
   40.28000n   80.2980m    1.0000  
   40.30000n   80.2979m    1.0000  
   40.32000n   80.2977m    1.0000  
   40.34000n   80.2978m    1.0000  
   40.36000n   80.2978m    1.0000  
   40.38000n   80.2979m    1.0000  
   40.40000n   80.2979m    1.0000  
   40.42000n   80.2979m    1.0000  
   40.44000n   80.2980m    1.0000  
   40.46000n   80.2980m    1.0000  
   40.48000n   80.2981m    1.0000  
   40.50000n   80.2981m    1.0000  
   40.52000n   80.2982m    1.0000  
   40.54000n   80.2982m    1.0000  
   40.56000n   80.2982m    1.0000  
   40.58000n   80.2983m    1.0000  
   40.60000n   80.2983m    1.0000  
   40.62000n   80.2984m    1.0000  
   40.64000n   80.2984m    1.0000  
   40.66000n   80.2984m    1.0000  
   40.68000n   80.2985m    1.0000  
   40.70000n   80.2985m    1.0000  
   40.72000n   80.2986m    1.0000  
   40.74000n   80.2986m    1.0000  
   40.76000n   80.2987m    1.0000  
   40.78000n   80.2987m    1.0000  
   40.80000n   80.2987m    1.0000  
   40.82000n   80.2988m    1.0000  
   40.84000n   80.2988m    1.0000  
   40.86000n   80.2989m    1.0000  
   40.88000n   80.2989m    1.0000  
   40.90000n   80.2989m    1.0000  
   40.92000n   80.2989m    1.0000  
   40.94000n   80.2989m    1.0000  
   40.96000n   80.2989m    1.0000  
   40.98000n   80.2989m    1.0000  
   41.00000n   80.2989m    1.0000  
   41.02000n   80.2988m    1.0000  
   41.04000n   80.2988m    1.0000  
   41.06000n   80.2988m    1.0000  
   41.08000n   80.2988m    1.0000  
   41.10000n   80.2988m    1.0000  
   41.12000n   80.2988m    1.0000  
   41.14000n   80.2988m    1.0000  
   41.16000n   80.2987m    1.0000  
   41.18000n   80.2987m    1.0000  
   41.20000n   80.2987m    1.0000  
   41.22000n   80.2987m    1.0000  
   41.24000n   80.2987m    1.0000  
   41.26000n   80.2987m    1.0000  
   41.28000n   80.2987m    1.0000  
   41.30000n   80.2987m    1.0000  
   41.32000n   80.2986m    1.0000  
   41.34000n   80.2986m    1.0000  
   41.36000n   80.2986m    1.0000  
   41.38000n   80.2986m    1.0000  
   41.40000n   80.2986m    1.0000  
   41.42000n   80.2986m    1.0000  
   41.44000n   80.2986m    1.0000  
   41.46000n   80.2986m    1.0000  
   41.48000n   80.2985m    1.0000  
   41.50000n   80.2985m    1.0000  
   41.52000n   80.2985m    1.0000  
   41.54000n   80.2985m    1.0000  
   41.56000n   80.2985m    1.0000  
   41.58000n   80.2985m    1.0000  
   41.60000n   80.2985m    1.0000  
   41.62000n   80.2985m    1.0000  
   41.64000n   80.2984m    1.0000  
   41.66000n   80.2984m    1.0000  
   41.68000n   80.2984m    1.0000  
   41.70000n   80.2984m    1.0000  
   41.72000n   80.2984m    1.0000  
   41.74000n   80.2984m    1.0000  
   41.76000n   80.2984m    1.0000  
   41.78000n   80.2984m    1.0000  
   41.80000n   80.2983m    1.0000  
   41.82000n   80.2983m    1.0000  
   41.84000n   80.2983m    1.0000  
   41.86000n   80.2983m    1.0000  
   41.88000n   80.2983m    1.0000  
   41.90000n   80.2983m    1.0000  
   41.92000n   80.2983m    1.0000  
   41.94000n   80.2983m    1.0000  
   41.96000n   80.2982m    1.0000  
   41.98000n   80.2982m    1.0000  
   42.00000n   80.2982m    1.0000  
   42.02000n   80.2982m    1.0000  
   42.04000n   80.2982m    1.0000  
   42.06000n   80.2982m    1.0000  
   42.08000n   80.2982m    1.0000  
   42.10000n   80.2981m    1.0000  
   42.12000n   80.2981m    1.0000  
   42.14000n   80.2981m    1.0000  
   42.16000n   80.2981m    1.0000  
   42.18000n   80.2981m    1.0000  
   42.20000n   80.2981m    1.0000  
   42.22000n   80.2981m    1.0000  
   42.24000n   80.2981m    1.0000  
   42.26000n   80.2980m    1.0000  
   42.28000n   80.2980m    1.0000  
   42.30000n   80.2980m    1.0000  
   42.32000n   80.2980m    1.0000  
   42.34000n   80.2980m    1.0000  
   42.36000n   80.2980m    1.0000  
   42.38000n   80.2980m    1.0000  
   42.40000n   80.2980m    1.0000  
   42.42000n   80.2979m    1.0000  
   42.44000n   80.2979m    1.0000  
   42.46000n   80.2979m    1.0000  
   42.48000n   80.2979m    1.0000  
   42.50000n   80.2979m    1.0000  
   42.52000n   80.2979m    1.0000  
   42.54000n   80.2979m    1.0000  
   42.56000n   80.2979m    1.0000  
   42.58000n   80.2978m    1.0000  
   42.60000n   80.2978m    1.0000  
   42.62000n   80.2978m    1.0000  
   42.64000n   80.2978m    1.0000  
   42.66000n   80.2978m    1.0000  
   42.68000n   80.2978m    1.0000  
   42.70000n   80.2978m    1.0000  
   42.72000n   80.2978m    1.0000  
   42.74000n   80.2978m    1.0000  
   42.76000n   80.2978m    1.0000  
   42.78000n   80.2978m    1.0000  
   42.80000n   80.2978m    1.0000  
   42.82000n   80.2979m    1.0000  
   42.84000n   80.2979m    1.0000  
   42.86000n   80.2979m    1.0000  
   42.88000n   80.2979m    1.0000  
   42.90000n   80.2979m    1.0000  
   42.92000n   80.2979m    1.0000  
   42.94000n   80.2980m    1.0000  
   42.96000n   80.2980m    1.0000  
   42.98000n   80.2980m    1.0000  
   43.00000n   80.2980m    1.0000  
   43.02000n   80.2980m    1.0000  
   43.04000n   80.2980m    1.0000  
   43.06000n   80.2981m    1.0000  
   43.08000n   80.2981m    1.0000  
   43.10000n   80.2981m    1.0000  
   43.12000n   80.2981m    1.0000  
   43.14000n   80.2981m    1.0000  
   43.16000n   80.2982m    1.0000  
   43.18000n   80.2982m    1.0000  
   43.20000n   80.2982m    1.0000  
   43.22000n   80.2982m    1.0000  
   43.24000n   80.2982m    1.0000  
   43.26000n   80.2982m    1.0000  
   43.28000n   80.2983m    1.0000  
   43.30000n   80.2983m    1.0000  
   43.32000n   80.2983m    1.0000  
   43.34000n   80.2983m    1.0000  
   43.36000n   80.2983m    1.0000  
   43.38000n   80.2983m    1.0000  
   43.40000n   80.2984m    1.0000  
   43.42000n   80.2984m    1.0000  
   43.44000n   80.2984m    1.0000  
   43.46000n   80.2984m    1.0000  
   43.48000n   80.2984m    1.0000  
   43.50000n   80.2985m    1.0000  
   43.52000n   80.2985m    1.0000  
   43.54000n   80.2985m    1.0000  
   43.56000n   80.2985m    1.0000  
   43.58000n   80.2985m    1.0000  
   43.60000n   80.2985m    1.0000  
   43.62000n   80.2986m    1.0000  
   43.64000n   80.2986m    1.0000  
   43.66000n   80.2986m    1.0000  
   43.68000n   80.2986m    1.0000  
   43.70000n   80.2986m    1.0000  
   43.72000n   80.2986m    1.0000  
   43.74000n   80.2987m    1.0000  
   43.76000n   80.2987m    1.0000  
   43.78000n   80.2987m    1.0000  
   43.80000n   80.2987m    1.0000  
   43.82000n   80.2987m    1.0000  
   43.84000n   80.2988m    1.0000  
   43.86000n   80.2988m    1.0000  
   43.88000n   80.2988m    1.0000  
   43.90000n   80.2988m    1.0000  
   43.92000n   80.2988m    1.0000  
   43.94000n   80.2988m    1.0000  
   43.96000n   80.2989m    1.0000  
   43.98000n   80.2989m    1.0000  
   44.00000n   80.2989m    1.0000  
   44.02000n  166.7155m    0.      
   44.04000n  396.1209m    0.      
   44.06000n  546.8954m    0.      
   44.08000n  688.1865m    0.      
   44.10000n  779.9857m    0.      
   44.12000n  837.8624m    0.      
   44.14000n  877.7790m    0.      
   44.16000n  917.6956m    0.      
   44.18000n  938.2186m    0.      
   44.20000n  955.8078m    0.      
   44.22000n  970.1112m    0.      
   44.24000n  976.8577m    0.      
   44.26000n  983.6041m    0.      
   44.28000n  990.1383m    0.      
   44.30000n  992.0389m    0.      
   44.32000n  993.9396m    0.      
   44.34000n  995.8403m    0.      
   44.36000n  997.7410m    0.      
   44.38000n  998.3100m    0.      
   44.40000n  998.6220m    0.      
   44.42000n  998.9340m    0.      
   44.44000n  999.2460m    0.      
   44.46000n  999.5579m    0.      
   44.48000n  999.8699m    0.      
   44.50000n  999.8893m    0.      
   44.52000n  999.8959m    0.      
   44.54000n  999.9024m    0.      
   44.56000n  999.9090m    0.      
   44.58000n  999.9155m    0.      
   44.60000n  999.9221m    0.      
   44.62000n  999.9286m    0.      
   44.64000n  999.9351m    0.      
   44.66000n  999.9377m    0.      
   44.68000n  999.9370m    0.      
   44.70000n  999.9362m    0.      
   44.72000n  999.9354m    0.      
   44.74000n  999.9346m    0.      
   44.76000n  999.9338m    0.      
   44.78000n  999.9330m    0.      
   44.80000n  999.9322m    0.      
   44.82000n  999.9314m    0.      
   44.84000n  999.9306m    0.      
   44.86000n  999.9299m    0.      
   44.88000n  999.9291m    0.      
   44.90000n  999.9283m    0.      
   44.92000n  999.9278m    0.      
   44.94000n  999.9280m    0.      
   44.96000n  999.9282m    0.      
   44.98000n  999.9284m    0.      
   45.00000n  999.9285m    0.      
   45.02000n  999.9287m    0.      
   45.04000n  999.9289m    0.      
   45.06000n  999.9291m    0.      
   45.08000n  999.9293m    0.      
   45.10000n  999.9294m    0.      
   45.12000n  999.9296m    0.      
   45.14000n  999.9298m    0.      
   45.16000n  999.9300m    0.      
   45.18000n  999.9301m    0.      
   45.20000n  999.9303m    0.      
   45.22000n  999.9305m    0.      
   45.24000n  999.9307m    0.      
   45.26000n  999.9309m    0.      
   45.28000n  999.9310m    0.      
   45.30000n  999.9312m    0.      
   45.32000n  999.9314m    0.      
   45.34000n  999.9316m    0.      
   45.36000n  999.9318m    0.      
   45.38000n  999.9319m    0.      
   45.40000n  999.9321m    0.      
   45.42000n  999.9322m    0.      
   45.44000n  999.9322m    0.      
   45.46000n  999.9321m    0.      
   45.48000n  999.9321m    0.      
   45.50000n  999.9321m    0.      
   45.52000n  999.9320m    0.      
   45.54000n  999.9320m    0.      
   45.56000n  999.9320m    0.      
   45.58000n  999.9320m    0.      
   45.60000n  999.9319m    0.      
   45.62000n  999.9319m    0.      
   45.64000n  999.9319m    0.      
   45.66000n  999.9318m    0.      
   45.68000n  999.9318m    0.      
   45.70000n  999.9318m    0.      
   45.72000n  999.9317m    0.      
   45.74000n  999.9317m    0.      
   45.76000n  999.9317m    0.      
   45.78000n  999.9317m    0.      
   45.80000n  999.9316m    0.      
   45.82000n  999.9316m    0.      
   45.84000n  999.9316m    0.      
   45.86000n  999.9315m    0.      
   45.88000n  999.9315m    0.      
   45.90000n  999.9315m    0.      
   45.92000n  999.9315m    0.      
   45.94000n  999.9314m    0.      
   45.96000n  999.9314m    0.      
   45.98000n  999.9314m    0.      
   46.00000n  999.9313m    0.      
   46.02000n  999.9313m    0.      
   46.04000n  999.9313m    0.      
   46.06000n  999.9313m    0.      
   46.08000n  999.9312m    0.      
   46.10000n  999.9312m    0.      
   46.12000n  999.9312m    0.      
   46.14000n  999.9311m    0.      
   46.16000n  999.9311m    0.      
   46.18000n  999.9311m    0.      
   46.20000n  999.9311m    0.      
   46.22000n  999.9310m    0.      
   46.24000n  999.9310m    0.      
   46.26000n  999.9310m    0.      
   46.28000n  999.9309m    0.      
   46.30000n  999.9309m    0.      
   46.32000n  999.9309m    0.      
   46.34000n  999.9308m    0.      
   46.36000n  999.9308m    0.      
   46.38000n  999.9308m    0.      
   46.40000n  999.9308m    0.      
   46.42000n  999.9307m    0.      
   46.44000n  999.9307m    0.      
   46.46000n  999.9307m    0.      
   46.48000n  999.9306m    0.      
   46.50000n  999.9306m    0.      
   46.52000n  999.9306m    0.      
   46.54000n  999.9306m    0.      
   46.56000n  999.9305m    0.      
   46.58000n  999.9305m    0.      
   46.60000n  999.9305m    0.      
   46.62000n  999.9304m    0.      
   46.64000n  999.9304m    0.      
   46.66000n  999.9304m    0.      
   46.68000n  999.9304m    0.      
   46.70000n  999.9303m    0.      
   46.72000n  999.9303m    0.      
   46.74000n  999.9303m    0.      
   46.76000n  999.9302m    0.      
   46.78000n  999.9302m    0.      
   46.80000n  999.9302m    0.      
   46.82000n  999.9302m    0.      
   46.84000n  999.9301m    0.      
   46.86000n  999.9301m    0.      
   46.88000n  999.9301m    0.      
   46.90000n  999.9300m    0.      
   46.92000n  999.9300m    0.      
   46.94000n  999.9300m    0.      
   46.96000n  999.9299m    0.      
   46.98000n  999.9299m    0.      
   47.00000n  999.9299m    0.      
   47.02000n  999.9299m    0.      
   47.04000n  999.9300m    0.      
   47.06000n  999.9300m    0.      
   47.08000n  999.9300m    0.      
   47.10000n  999.9301m    0.      
   47.12000n  999.9301m    0.      
   47.14000n  999.9301m    0.      
   47.16000n  999.9302m    0.      
   47.18000n  999.9302m    0.      
   47.20000n  999.9302m    0.      
   47.22000n  999.9303m    0.      
   47.24000n  999.9303m    0.      
   47.26000n  999.9304m    0.      
   47.28000n  999.9304m    0.      
   47.30000n  999.9304m    0.      
   47.32000n  999.9305m    0.      
   47.34000n  999.9305m    0.      
   47.36000n  999.9305m    0.      
   47.38000n  999.9306m    0.      
   47.40000n  999.9306m    0.      
   47.42000n  999.9306m    0.      
   47.44000n  999.9307m    0.      
   47.46000n  999.9307m    0.      
   47.48000n  999.9308m    0.      
   47.50000n  999.9308m    0.      
   47.52000n  999.9308m    0.      
   47.54000n  999.9309m    0.      
   47.56000n  999.9309m    0.      
   47.58000n  999.9309m    0.      
   47.60000n  999.9310m    0.      
   47.62000n  999.9310m    0.      
   47.64000n  999.9310m    0.      
   47.66000n  999.9311m    0.      
   47.68000n  999.9311m    0.      
   47.70000n  999.9311m    0.      
   47.72000n  999.9312m    0.      
   47.74000n  999.9312m    0.      
   47.76000n  999.9313m    0.      
   47.78000n  999.9313m    0.      
   47.80000n  999.9313m    0.      
   47.82000n  999.9314m    0.      
   47.84000n  999.9314m    0.      
   47.86000n  999.9314m    0.      
   47.88000n  999.9315m    0.      
   47.90000n  999.9315m    0.      
   47.92000n  999.9315m    0.      
   47.94000n  999.9316m    0.      
   47.96000n  999.9316m    0.      
   47.98000n  999.9317m    0.      
   48.00000n  999.9317m    0.      
   48.02000n  391.7617m    1.0000  
   48.04000n   77.4721m    1.0000  
   48.06000n   80.3341m    1.0000  
   48.08000n   80.2980m    1.0000  
   48.10000n   80.2991m    1.0000  
   48.12000n   80.2990m    1.0000  
   48.14000n   80.2989m    1.0000  
   48.16000n   80.2988m    1.0000  
   48.18000n   80.2987m    1.0000  
   48.20000n   80.2985m    1.0000  
   48.22000n   80.2984m    1.0000  
   48.24000n   80.2983m    1.0000  
   48.26000n   80.2981m    1.0000  
   48.28000n   80.2980m    1.0000  
   48.30000n   80.2979m    1.0000  
   48.32000n   80.2977m    1.0000  
   48.34000n   80.2978m    1.0000  
   48.36000n   80.2978m    1.0000  
   48.38000n   80.2979m    1.0000  
   48.40000n   80.2979m    1.0000  
   48.42000n   80.2979m    1.0000  
   48.44000n   80.2980m    1.0000  
   48.46000n   80.2980m    1.0000  
   48.48000n   80.2981m    1.0000  
   48.50000n   80.2981m    1.0000  
   48.52000n   80.2982m    1.0000  
   48.54000n   80.2982m    1.0000  
   48.56000n   80.2982m    1.0000  
   48.58000n   80.2983m    1.0000  
   48.60000n   80.2983m    1.0000  
   48.62000n   80.2984m    1.0000  
   48.64000n   80.2984m    1.0000  
   48.66000n   80.2984m    1.0000  
   48.68000n   80.2985m    1.0000  
   48.70000n   80.2985m    1.0000  
   48.72000n   80.2986m    1.0000  
   48.74000n   80.2986m    1.0000  
   48.76000n   80.2987m    1.0000  
   48.78000n   80.2987m    1.0000  
   48.80000n   80.2987m    1.0000  
   48.82000n   80.2988m    1.0000  
   48.84000n   80.2988m    1.0000  
   48.86000n   80.2989m    1.0000  
   48.88000n   80.2989m    1.0000  
   48.90000n   80.2989m    1.0000  
   48.92000n   80.2989m    1.0000  
   48.94000n   80.2989m    1.0000  
   48.96000n   80.2988m    1.0000  
   48.98000n   80.2988m    1.0000  
   49.00000n   80.2988m    1.0000  
   49.02000n   80.2988m    1.0000  
   49.04000n   80.2988m    1.0000  
   49.06000n   80.2987m    1.0000  
   49.08000n   80.2987m    1.0000  
   49.10000n   80.2987m    1.0000  
   49.12000n   80.2987m    1.0000  
   49.14000n   80.2987m    1.0000  
   49.16000n   80.2986m    1.0000  
   49.18000n   80.2986m    1.0000  
   49.20000n   80.2986m    1.0000  
   49.22000n   80.2986m    1.0000  
   49.24000n   80.2986m    1.0000  
   49.26000n   80.2985m    1.0000  
   49.28000n   80.2985m    1.0000  
   49.30000n   80.2985m    1.0000  
   49.32000n   80.2985m    1.0000  
   49.34000n   80.2985m    1.0000  
   49.36000n   80.2984m    1.0000  
   49.38000n   80.2984m    1.0000  
   49.40000n   80.2984m    1.0000  
   49.42000n   80.2984m    1.0000  
   49.44000n   80.2983m    1.0000  
   49.46000n   80.2983m    1.0000  
   49.48000n   80.2983m    1.0000  
   49.50000n   80.2983m    1.0000  
   49.52000n   80.2983m    1.0000  
   49.54000n   80.2982m    1.0000  
   49.56000n   80.2982m    1.0000  
   49.58000n   80.2982m    1.0000  
   49.60000n   80.2982m    1.0000  
   49.62000n   80.2982m    1.0000  
   49.64000n   80.2981m    1.0000  
   49.66000n   80.2981m    1.0000  
   49.68000n   80.2981m    1.0000  
   49.70000n   80.2981m    1.0000  
   49.72000n   80.2981m    1.0000  
   49.74000n   80.2980m    1.0000  
   49.76000n   80.2980m    1.0000  
   49.78000n   80.2980m    1.0000  
   49.80000n   80.2980m    1.0000  
   49.82000n   80.2979m    1.0000  
   49.84000n   80.2979m    1.0000  
   49.86000n   80.2979m    1.0000  
   49.88000n   80.2979m    1.0000  
   49.90000n   80.2979m    1.0000  
   49.92000n   80.2978m    1.0000  
   49.94000n   80.2978m    1.0000  
   49.96000n   80.2978m    1.0000  
   49.98000n   80.2978m    1.0000  
   50.00000n   80.2978m    1.0000  
y
 tplh=  38.7365p  targ=   4.0537n   trig=   4.0150n
 tphl=  11.0985p  targ=   8.0161n   trig=   8.0050n

          ***** job concluded
 ******  
 * this is the model for a 45-nm rl inverter *

 ****** job statistics summary tnom=  25.000 temp=  25.000 ******

  ******  HSPICE Threads Information  ******

  Command Line Threads Count :     1
  Available CPU Count        :     4
  Actual Threads Count       :     1


  ******  Circuit Statistics  ******
  # nodes       =       8 # elements   =       5
  # resistors   =       1 # capacitors =       1 # inductors   =       0
  # mutual_inds =       0 # vccs       =       0 # vcvs        =       0
  # cccs        =       0 # ccvs       =       0 # volt_srcs   =       2
  # curr_srcs   =       0 # diodes     =       0 # bjts        =       0
  # jfets       =       0 # mosfets    =       1 # U elements  =       0
  # T elements  =       0 # W elements =       0 # B elements  =       0
  # S elements  =       0 # P elements =       0 # va device   =       0
  # vector_srcs =       0 # N elements =       0


  ******  Runtime Statistics (seconds)  ******

  analysis           time    # points   tot. iter  conv.iter
  op point           0.00           1           4
  transient          0.01        2501         563         252 rev=        25
  readin             0.02
  errchk             0.01
  setup              0.00
  output             0.00


           peak memory used         70.74 megabytes
           total cpu time            0.06 seconds
           total elapsed time        0.14 seconds
           job started at     13:52:51 11/20/2022
           job ended   at     13:52:51 11/20/2022
           job total runtime         0.14 seconds


  lic: Release hspice token(s) 
 lic: total license checkout elapse time:        0.08(s)
