$DATA1 SOURCE='HSPICE' VERSION='R-2020.12 win64' PARAM_COUNT=0
.TITLE '* this is the model for a 45-nm cmos inverter *'
 tplh             tphl             temper           alter#          
  4.937e-11        3.597e-11         25.0000        1               
